
 OpenBabel10061800203D

 18 19  0  0  0  0  0  0  0  0999 V2000
    1.5260    7.6974   16.0169 N   0  0  0  0  0  0  0  0  0  0  0  0
   -0.9022    8.3577   17.3233 N   0  0  0  0  0  0  0  0  0  0  0  0
    2.6847    7.3930   15.3761 C   0  0  0  0  0  0  0  0  0  0  0  0
    3.5822    6.4969   15.9531 C   0  0  0  0  0  0  0  0  0  0  0  0
    3.2610    5.9323   17.1858 C   0  0  0  0  0  0  0  0  0  0  0  0
    2.0929    6.2607   17.7968 N   0  0  0  0  0  0  0  0  0  0  0  0
   -0.3353    6.9211   19.1032 N   0  0  0  0  0  0  0  0  0  0  0  0
   -1.4940    7.2255   19.7440 C   0  0  0  0  0  0  0  0  0  0  0  0
   -2.3915    8.1215   19.1670 C   0  0  0  0  0  0  0  0  0  0  0  0
   -2.0703    8.6862   17.9344 C   0  0  0  0  0  0  0  0  0  0  0  0
    1.2247    7.1381   17.2214 C   0  0  0  0  0  0  0  0  0  0  0  0
   -0.0340    7.4804   17.8987 C   0  0  0  0  0  0  0  0  0  0  0  0
   -2.7484    9.3849   17.4629 H   0  0  0  0  0  0  0  0  0  0  0  0
   -3.3184    8.3736   19.6657 H   0  0  0  0  0  0  0  0  0  0  0  0
   -1.7173    6.7718   20.7003 H   0  0  0  0  0  0  0  0  0  0  0  0
    2.9080    7.8467   14.4198 H   0  0  0  0  0  0  0  0  0  0  0  0
    4.5091    6.2449   15.4544 H   0  0  0  0  0  0  0  0  0  0  0  0
    3.9391    5.2335   17.6572 H   0  0  0  0  0  0  0  0  0  0  0  0
  1 11  2  0  0  0  0
  2 10  1  0  0  0  0
  2 12  2  0  0  0  0
  3  1  1  0  0  0  0
  3  4  2  0  0  0  0
  3 16  1  0  0  0  0
  4  5  1  0  0  0  0
  4 17  1  0  0  0  0
  5  6  2  0  0  0  0
  5 18  1  0  0  0  0
  7  8  2  0  0  0  0
  8 15  1  0  0  0  0
  9  8  1  0  0  0  0
  9 14  1  0  0  0  0
 10  9  2  0  0  0  0
 10 13  1  0  0  0  0
 11 12  1  0  0  0  0
 11  6  1  0  0  0  0
 12  7  1  0  0  0  0
M  END
