
 OpenBabel11131718583D

 16 17  0  0  0  0  0  0  0  0999 V2000
    1.4604    4.0559    1.7631 O   0  0  0  0  0  0  0  0  0  0  0  0
    1.7619    3.3716    2.9144 C   0  0  0  0  0  0  0  0  0  0  0  0
    2.6661    2.3683    2.5998 C   0  0  0  0  0  0  0  0  0  0  0  0
    2.9203    2.4489    1.2086 C   0  0  0  0  0  0  0  0  0  0  0  0
    2.1602    3.4942    0.7471 C   0  0  0  0  0  0  0  0  0  0  0  0
    3.0933    1.6597    3.2951 H   0  0  0  0  0  0  0  0  0  0  0  0
    2.0119    3.9435   -0.2249 H   0  0  0  0  0  0  0  0  0  0  0  0
    3.5747    1.8240    0.6177 H   0  0  0  0  0  0  0  0  0  0  0  0
    1.1876    3.7108    4.1842 C   0  0  0  0  0  0  0  0  0  0  0  0
    0.3017    4.7482    4.3379 O   0  0  0  0  0  0  0  0  0  0  0  0
   -0.0510    4.8067    5.6455 C   0  0  0  0  0  0  0  0  0  0  0  0
    0.5877    3.8237    6.3590 C   0  0  0  0  0  0  0  0  0  0  0  0
    1.3836    3.1189    5.4229 C   0  0  0  0  0  0  0  0  0  0  0  0
    2.0271    2.2750    5.6271 H   0  0  0  0  0  0  0  0  0  0  0  0
   -0.7516    5.5883    5.9044 H   0  0  0  0  0  0  0  0  0  0  0  0
    0.4921    3.6383    7.4194 H   0  0  0  0  0  0  0  0  0  0  0  0
  1  2  1  0  0  0  0
  2  3  2  0  0  0  0
  2  9  1  0  0  0  0
  3  6  1  0  0  0  0
  4  3  1  0  0  0  0
  4  8  1  0  0  0  0
  5  1  1  0  0  0  0
  5  4  2  0  0  0  0
  5  7  1  0  0  0  0
  9 10  1  0  0  0  0
  9 13  2  0  0  0  0
 10 11  1  0  0  0  0
 11 12  2  0  0  0  0
 11 15  1  0  0  0  0
 12 16  1  0  0  0  0
 13 12  1  0  0  0  0
 13 14  1  0  0  0  0
M  END
