
 OpenBabel10041822103D

 14 15  0  0  0  0  0  0  0  0999 V2000
    2.4309   -5.7585   -1.1564 O   0  0  0  0  0  0  0  0  0  0  0  0
    3.2377   -6.4615   -2.0270 C   0  0  0  0  0  0  0  0  0  0  0  0
    2.4732   -6.3800   -3.3705 C   0  0  0  0  0  0  0  0  0  0  0  0
    1.2796   -5.4399   -1.7537 C   0  0  0  0  0  0  0  0  0  0  0  0
    1.2310   -5.7766   -2.9772 N   0  0  0  0  0  0  0  0  0  0  0  0
   -1.0986   -3.7632    0.5552 C   0  0  0  0  0  0  0  0  0  0  0  0
    0.1987   -4.2996    0.3305 O   0  0  0  0  0  0  0  0  0  0  0  0
    0.1621   -4.7826   -1.0546 C   0  0  0  0  0  0  0  0  0  0  0  0
   -1.8365   -3.9488   -0.6513 C   0  0  0  0  0  0  0  0  0  0  0  0
   -0.9589   -4.5791   -1.5855 N   0  0  0  0  0  0  0  0  0  0  0  0
   -2.8185   -3.6787   -0.8178 H   0  0  0  0  0  0  0  0  0  0  0  0
   -1.4407   -3.3240    1.4241 H   0  0  0  0  0  0  0  0  0  0  0  0
    2.7783   -6.6821   -4.3090 H   0  0  0  0  0  0  0  0  0  0  0  0
    4.1360   -6.9297   -1.8298 H   0  0  0  0  0  0  0  0  0  0  0  0
  2 14  1  0  0  0  0
  2  1  1  0  0  0  0
  3  5  1  0  0  0  0
  3  2  2  0  0  0  0
  4  1  1  0  0  0  0
  4  8  1  0  0  0  0
  5  4  2  0  0  0  0
  6 12  1  0  0  0  0
  7  6  1  0  0  0  0
  8  7  1  0  0  0  0
  9  6  2  0  0  0  0
 10  8  2  0  0  0  0
 10  9  1  0  0  0  0
 11  9  1  0  0  0  0
 13  3  1  0  0  0  0
M  END
