
 OpenBabel04011913173D

 51 55  0  0  0  0  0  0  0  0999 V2000
   -3.1211   10.7627    1.7425 C   0  0  0  0  0  0  0  0  0  0  0  0
   -3.0977   12.1516    1.9834 C   0  0  0  0  0  0  0  0  0  0  0  0
   -1.8748   12.8499    1.8949 C   0  0  0  0  0  0  0  0  0  0  0  0
   -0.6821   12.1781    1.5716 C   0  0  0  0  0  0  0  0  0  0  0  0
   -0.7184   10.8015    1.3355 C   0  0  0  0  0  0  0  0  0  0  0  0
   -1.9602   10.1505    1.4305 N   0  0  0  0  0  0  0  0  0  0  0  0
    1.0337    7.5634    0.4499 C   0  0  0  0  0  0  0  0  0  0  0  0
    2.3911    7.8465    0.2596 C   0  0  0  0  0  0  0  0  0  0  0  0
    3.0630    7.0437   -0.0080 H   0  0  0  0  0  0  0  0  0  0  0  0
    2.8575    9.2175    0.4261 C   0  0  0  0  0  0  0  0  0  0  0  0
    1.9136   10.2725    0.7832 C   0  0  0  0  0  0  0  0  0  0  0  0
    2.2065   11.3025    0.9142 H   0  0  0  0  0  0  0  0  0  0  0  0
    0.5651    9.9396    0.9628 C   0  0  0  0  0  0  0  0  0  0  0  0
    0.3309    8.6443    0.7745 N   0  0  0  0  0  0  0  0  0  0  0  0
   -4.2976   12.7971    2.3064 C   0  0  0  0  0  0  0  0  0  0  0  0
   -5.4821   12.0578    2.3830 C   0  0  0  0  0  0  0  0  0  0  0  0
   -5.4547   10.6805    2.1360 C   0  0  0  0  0  0  0  0  0  0  0  0
   -4.2832   10.0638    1.8227 N   0  0  0  0  0  0  0  0  0  0  0  0
   -1.8425   13.9172    2.0778 H   0  0  0  0  0  0  0  0  0  0  0  0
    0.2489   12.7257    1.5086 H   0  0  0  0  0  0  0  0  0  0  0  0
   -6.3670   10.1021    2.1936 H   0  0  0  0  0  0  0  0  0  0  0  0
   -4.3193   13.8630    2.4983 H   0  0  0  0  0  0  0  0  0  0  0  0
   -6.4146   12.5476    2.6320 H   0  0  0  0  0  0  0  0  0  0  0  0
   -1.4799    3.9618    0.2150 C   0  0  0  0  0  0  0  0  0  0  0  0
   -2.3333    2.8529    0.1591 C   0  0  0  0  0  0  0  0  0  0  0  0
   -1.9503    1.8710   -0.0912 H   0  0  0  0  0  0  0  0  0  0  0  0
   -3.6957    3.0139    0.4301 C   0  0  0  0  0  0  0  0  0  0  0  0
   -4.3632    2.1629    0.3896 H   0  0  0  0  0  0  0  0  0  0  0  0
   -4.1910    4.2821    0.7544 C   0  0  0  0  0  0  0  0  0  0  0  0
   -5.2437    4.4142    0.9654 H   0  0  0  0  0  0  0  0  0  0  0  0
   -3.3528    5.3525    0.8055 N   0  0  0  0  0  0  0  0  0  0  0  0
   -0.0978    3.8539   -0.0476 C   0  0  0  0  0  0  0  0  0  0  0  0
    0.3351    2.8941   -0.3024 H   0  0  0  0  0  0  0  0  0  0  0  0
    0.7392    4.9825    0.0179 C   0  0  0  0  0  0  0  0  0  0  0  0
    1.7977    4.8856   -0.1843 H   0  0  0  0  0  0  0  0  0  0  0  0
    0.1857    6.2224    0.3468 C   0  0  0  0  0  0  0  0  0  0  0  0
   -1.1961    6.2810    0.5950 N   0  0  0  0  0  0  0  0  0  0  0  0
   -2.0262    5.2188    0.5454 C   0  0  0  0  0  0  0  0  0  0  0  0
    4.3567    9.5122    0.2126 C   0  0  0  0  0  0  0  0  0  0  0  0
    4.7561    9.1304   -1.2291 C   0  0  0  0  0  0  0  0  0  0  0  0
    4.5833    8.0534   -1.4327 H   0  0  0  0  0  0  0  0  0  0  0  0
    5.8351    9.3319   -1.4053 H   0  0  0  0  0  0  0  0  0  0  0  0
    4.1667    9.7214   -1.9633 H   0  0  0  0  0  0  0  0  0  0  0  0
    5.1908    8.6870    1.2162 C   0  0  0  0  0  0  0  0  0  0  0  0
    5.0305    7.5967    1.0859 H   0  0  0  0  0  0  0  0  0  0  0  0
    4.9175    8.9558    2.2596 H   0  0  0  0  0  0  0  0  0  0  0  0
    6.2768    8.8811    1.0792 H   0  0  0  0  0  0  0  0  0  0  0  0
    4.7148   11.0035    0.4194 C   0  0  0  0  0  0  0  0  0  0  0  0
    4.1659   11.6478   -0.3011 H   0  0  0  0  0  0  0  0  0  0  0  0
    5.8016   11.1737    0.2574 H   0  0  0  0  0  0  0  0  0  0  0  0
    4.4773   11.3294    1.4551 H   0  0  0  0  0  0  0  0  0  0  0  0
  1  2  2  0  0  0  0
  2  3  1  0  0  0  0
  2 15  1  0  0  0  0
  3  4  2  0  0  0  0
  3 19  1  0  0  0  0
  4  5  1  0  0  0  0
  4 20  1  0  0  0  0
  5  6  2  0  0  0  0
  5 13  1  0  0  0  0
  6  1  1  0  0  0  0
  7  8  1  0  0  0  0
  8 10  2  0  0  0  0
  8  9  1  0  0  0  0
 10 11  1  0  0  0  0
 10 39  1  0  0  0  0
 11 13  2  0  0  0  0
 11 12  1  0  0  0  0
 13 14  1  0  0  0  0
 14  7  2  0  0  0  0
 15 16  2  0  0  0  0
 15 22  1  0  0  0  0
 16 17  1  0  0  0  0
 16 23  1  0  0  0  0
 17 18  2  0  0  0  0
 17 21  1  0  0  0  0
 18  1  1  0  0  0  0
 24 32  1  0  0  0  0
 24 25  1  0  0  0  0
 25 27  2  0  0  0  0
 25 26  1  0  0  0  0
 27 29  1  0  0  0  0
 27 28  1  0  0  0  0
 29 31  2  0  0  0  0
 29 30  1  0  0  0  0
 31 38  1  0  0  0  0
 32 34  2  0  0  0  0
 32 33  1  0  0  0  0
 34 36  1  0  0  0  0
 34 35  1  0  0  0  0
 36 37  2  0  0  0  0
 36  7  1  0  0  0  0
 37 38  1  0  0  0  0
 38 24  2  0  0  0  0
 39 40  1  0  0  0  0
 39 44  1  0  0  0  0
 39 48  1  0  0  0  0
 40 41  1  0  0  0  0
 40 42  1  0  0  0  0
 40 43  1  0  0  0  0
 44 45  1  0  0  0  0
 44 46  1  0  0  0  0
 44 47  1  0  0  0  0
 48 49  1  0  0  0  0
 48 50  1  0  0  0  0
 48 51  1  0  0  0  0
M  END
