C2 Carbon diatomic 12070154
##CCCBDB 5172213:58
Geometry Optimized at CCSD(T)=FULL/6-31G*
  2  1  0  0  0  0  0  0  0  0999 V2000
    0.0000    0.0000    0.6281 C   0  0  0  0  0  0  0  0  0  0  0  0
    0.0000    0.0000   -0.6281 C   0  0  0  0  0  0  0  0  0  0  0  0
  1  2  3  0  0  0
M  RAD  1  1  3
M  END
