
 OpenBabel10091800013D

 18 18  0  0  0  0  0  0  0  0999 V2000
   -0.8160    1.4186    0.1828 C   0  0  0  0  0  0  0  0  0  0  0  0
   -0.8124   -0.0615   -0.2116 C   0  0  0  0  0  0  0  0  0  0  0  0
    0.3805   -0.8430    0.3428 C   0  0  0  0  0  0  0  0  0  0  0  0
    1.6565   -0.5367   -0.3952 C   0  0  0  0  0  0  0  0  0  0  0  0
    2.2217   -1.4398   -0.9918 O   0  0  0  0  0  0  0  0  0  0  0  0
    2.2017    0.7030   -0.4301 O   0  0  0  0  0  0  0  0  0  0  0  0
    1.7175    1.8363    0.1899 C   0  0  0  0  0  0  0  0  0  0  0  0
    0.3477    2.2611   -0.3495 C   0  0  0  0  0  0  0  0  0  0  0  0
   -0.8381    1.4959    1.2925 H   0  0  0  0  0  0  0  0  0  0  0  0
   -1.7588    1.8662   -0.2011 H   0  0  0  0  0  0  0  0  0  0  0  0
   -0.8779   -0.1844   -1.3150 H   0  0  0  0  0  0  0  0  0  0  0  0
   -1.7323   -0.5015    0.2326 H   0  0  0  0  0  0  0  0  0  0  0  0
    0.1629   -1.9260    0.2081 H   0  0  0  0  0  0  0  0  0  0  0  0
    0.4970   -0.6569    1.4321 H   0  0  0  0  0  0  0  0  0  0  0  0
    2.4337    2.6515   -0.0467 H   0  0  0  0  0  0  0  0  0  0  0  0
    1.6993    1.7163    1.2951 H   0  0  0  0  0  0  0  0  0  0  0  0
    0.3609    2.2802   -1.4609 H   0  0  0  0  0  0  0  0  0  0  0  0
    0.1606    3.2980    0.0065 H   0  0  0  0  0  0  0  0  0  0  0  0
  1  2  1  0  0  0  0
  1  8  1  0  0  0  0
  1  9  1  0  0  0  0
  1 10  1  0  0  0  0
  2  3  1  0  0  0  0
  2 11  1  0  0  0  0
  2 12  1  0  0  0  0
  3  4  1  0  0  0  0
  3 13  1  0  0  0  0
  3 14  1  0  0  0  0
  4  5  2  0  0  0  0
  4  6  1  0  0  0  0
  6  7  1  0  0  0  0
  7  8  1  0  0  0  0
  7 15  1  0  0  0  0
  7 16  1  0  0  0  0
  8 17  1  0  0  0  0
  8 18  1  0  0  0  0
M  END
