
 OpenBabel10181721553D

  3  2  0  0  0  0  0  0  0  0999 V2000
    2.3014   -0.3876    0.7883 C   0  0  0  0  0  0  0  0  0  0  0  0
    3.2240   -0.3762    1.5499 O   0  0  0  0  0  0  0  0  0  0  0  0
    1.3788   -0.3989    0.0270 O   0  0  0  0  0  0  0  0  0  0  0  0
  1  2  2  0  0  0  0
  1  3  2  0  0  0  0
M  END
