
 OpenBabel03301715003D

 31 35  0  0  0  0  0  0  0  0999 V2000
   -1.3081   -2.6811    0.0268 C   0  0  0  0  0  0  0  0  0  0  0  0
   -0.8759   -3.9801   -0.1669 C   0  0  0  0  0  0  0  0  0  0  0  0
    0.5447   -3.9010   -0.3395 C   0  0  0  0  0  0  0  0  0  0  0  0
    0.8979   -2.4907   -0.2524 C   0  0  0  0  0  0  0  0  0  0  0  0
    2.0706   -1.4109   -0.2686 C   0  0  0  0  0  0  0  0  0  0  0  0
    3.4602   -1.5830   -0.3508 C   0  0  0  0  0  0  0  0  0  0  0  0
    4.0068   -0.3354   -0.2676 C   0  0  0  0  0  0  0  0  0  0  0  0
    2.8239    0.6242   -0.0357 C   0  0  0  0  0  0  0  0  0  0  0  0
    1.4030    2.4986   -0.1572 C   0  0  0  0  0  0  0  0  0  0  0  0
    1.2407    3.7929   -0.2438 C   0  0  0  0  0  0  0  0  0  0  0  0
   -0.1021    4.0512   -0.1144 C   0  0  0  0  0  0  0  0  0  0  0  0
   -0.7465    2.8362    0.0199 C   0  0  0  0  0  0  0  0  0  0  0  0
   -2.6720    1.3873    0.2021 C   0  0  0  0  0  0  0  0  0  0  0  0
   -4.0135    1.1943    0.3810 C   0  0  0  0  0  0  0  0  0  0  0  0
   -4.2143   -0.1877    0.3992 C   0  0  0  0  0  0  0  0  0  0  0  0
   -2.9601   -0.7724    0.2166 C   0  0  0  0  0  0  0  0  0  0  0  0
   -0.2518   -1.8786   -0.0277 N   0  0  0  0  0  0  0  0  0  0  0  0
    1.7538   -0.1099   -0.0904 N   0  0  0  0  0  0  0  0  0  0  0  0
    2.6135    1.9992   -0.1424 N   0  0  0  0  0  0  0  0  0  0  0  0
    0.1820    1.8798   -0.0049 N   0  0  0  0  0  0  0  0  0  0  0  0
   -2.0250    2.6540    0.1297 N   0  0  0  0  0  0  0  0  0  0  0  0
   -2.0502    0.2139    0.0901 N   0  0  0  0  0  0  0  0  0  0  0  0
   -2.6463   -2.1828    0.1870 N   0  5  0  0  0  0  0  0  0  0  0  0
   -5.1705   -0.6683    0.5357 H   0  0  0  0  0  0  0  0  0  0  0  0
   -4.7274    1.9985    0.4883 H   0  0  0  0  0  0  0  0  0  0  0  0
   -1.5344   -4.8444   -0.2063 H   0  0  0  0  0  0  0  0  0  0  0  0
    1.1643   -4.7863   -0.5214 H   0  0  0  0  0  0  0  0  0  0  0  0
    4.0220   -2.5616   -0.5501 H   0  0  0  0  0  0  0  0  0  0  0  0
    5.1421    0.1873   -0.2927 H   0  0  0  0  0  0  0  0  0  0  0  0
    2.0839    4.4289   -0.3579 H   0  0  0  0  0  0  0  0  0  0  0  0
   -0.4865    5.0447   -0.1309 H   0  0  0  0  0  0  0  0  0  0  0  0
  1 17  1  0  0  0  0
  2  1  2  0  0  0  0
  2  3  1  0  0  0  0
  3  4  2  0  0  0  0
  4  5  1  0  0  0  0
  5 18  1  0  0  0  0
  5  6  2  0  0  0  0
  6  7  1  0  0  0  0
  7 29  1  0  0  0  0
  8  7  2  0  0  0  0
  8 19  1  0  0  0  0
  9 19  2  0  0  0  0
  9 10  1  0  0  0  0
 10 30  1  0  0  0  0
 11 31  1  0  0  0  0
 11 10  2  0  0  0  0
 12 20  1  0  0  0  0
 12 11  1  0  0  0  0
 13 21  1  0  0  0  0
 14 25  1  0  0  0  0
 14 13  2  0  0  0  0
 15 16  2  0  0  0  0
 15 14  1  0  0  0  0
 16 22  1  0  0  0  0
 17  4  1  0  0  0  0
 18  8  1  0  0  0  0
 20  9  1  0  0  0  0
 21 12  2  0  0  0  0
 22 13  1  0  0  0  0
 23  1  1  0  0  0  0
 23 16  1  0  0  0  0
 24 15  1  0  0  0  0
 26  2  1  0  0  0  0
 27  3  1  0  0  0  0
 28  6  1  0  0  0  0
M  CHG  2  23  -1  22  -1
M  END
