
 OpenBabel11051713023D

  7  6  0  0  0  0  0  0  0  0999 V2000
   -1.8050   -0.6790   -0.8007 N   0  5  0  0  0  0  0  0  0  0  0  0
   -3.0588   -1.6115    0.7382 N   0  0  0  0  0  0  0  0  0  0  0  0
   -1.8519   -2.1393   -0.1881 C   0  0  0  0  0  0  0  0  0  0  0  0
   -0.9810   -0.6539   -1.4903 H   0  0  0  0  0  0  0  0  0  0  0  0
   -0.8829   -2.4521    0.1793 H   0  0  0  0  0  0  0  0  0  0  0  0
   -3.3117   -2.3294    1.3351 H   0  0  0  0  0  0  0  0  0  0  0  0
   -1.7427   -2.9736   -0.8588 H   0  0  0  0  0  0  0  0  0  0  0  0
  1  3  1  0  0  0  0
  1  4  1  0  0  0  0
  2  6  1  0  0  0  0
  3  2  1  0  0  0  0
  3  5  1  0  0  0  0
  7  3  1  0  0  0  0
M  CHG  1   1  -1
M  END
