
 OpenBabel11011613373D

  5  4  0  0  0  0  0  0  0  0999 V2000
   -1.2419    0.2538    0.0326 N   0  0  0  0  0  0  0  0  0  0  0  0
    0.0836    0.6574    0.0512 C   0  0  0  0  0  0  0  0  0  0  0  0
   -2.2559    1.1983    0.0380 C   0  0  0  0  0  0  0  0  0  0  0  0
   -3.1031    1.9868    0.0426 N   0  0  0  0  0  0  0  0  0  0  0  0
    1.1908    0.9940    0.0668 N   0  0  0  0  0  0  0  0  0  0  0  0
  1  2  1  0  0  0  0
  1  3  1  0  0  0  0
  4  3  3  0  0  0  0
  5  2  3  0  0  0  0
M  CHG  1   1  -1
M  END
