
 OpenBabel10081812533D

 11 11  0  0  0  0  0  0  0  0999 V2000
    1.3555    4.1186    1.2591 O   0  0  0  0  0  0  0  0  0  0  0  0
    1.5731    4.2252    2.5730 C   0  0  0  0  0  0  0  0  0  0  0  0
    2.2915    3.1730    3.0408 C   0  0  0  0  0  0  0  0  0  0  0  0
    2.5232    2.2147    1.9357 C   0  0  0  0  0  0  0  0  0  0  0  0
    2.0407    3.0477    0.7212 C   0  0  0  0  0  0  0  0  0  0  0  0
    3.5704    1.8720    1.8016 H   0  0  0  0  0  0  0  0  0  0  0  0
    1.8477    1.3554    2.1394 H   0  0  0  0  0  0  0  0  0  0  0  0
    1.4450    2.4421    0.0057 H   0  0  0  0  0  0  0  0  0  0  0  0
    2.9204    3.4817    0.1971 H   0  0  0  0  0  0  0  0  0  0  0  0
    1.2181    5.0475    3.1766 H   0  0  0  0  0  0  0  0  0  0  0  0
    2.5674    3.0310    4.0781 H   0  0  0  0  0  0  0  0  0  0  0  0
  1  2  1  0  0  0  0
  2  3  2  0  0  0  0
  2 10  1  0  0  0  0
  3 11  1  0  0  0  0
  4  7  1  0  0  0  0
  4  3  1  0  0  0  0
  5  1  1  0  0  0  0
  5  4  1  0  0  0  0
  6  4  1  0  0  0  0
  8  5  1  0  0  0  0
  9  5  1  0  0  0  0
M  END
