
 OpenBabel03171709523D

 24 23  0  0  0  0  0  0  0  0999 V2000
   -0.0028    6.9485   -0.3312 H   0  0  0  0  0  0  0  0  0  0  0  0
    1.1156    4.9218   -1.1232 P   0  0  0  0  0  0  0  0  0  0  0  0
    0.8855    6.4023    0.0304 C   0  0  0  0  0  0  0  0  0  0  0  0
   -0.7611    4.7792    1.2619 P   0  0  0  0  0  0  0  0  0  0  0  0
    1.7304    7.1160   -0.0600 H   0  0  0  0  0  0  0  0  0  0  0  0
    0.6035    6.0039    1.4736 C   0  0  0  0  0  0  0  0  0  0  0  0
    0.2980    6.9190    2.0178 H   0  0  0  0  0  0  0  0  0  0  0  0
    1.4705    5.5770    1.9911 H   0  0  0  0  0  0  0  0  0  0  0  0
   -1.7567    3.7177    2.4508 C   0  0  0  0  0  0  0  0  0  0  0  0
   -1.2922    2.7569    2.6740 H   0  0  0  0  0  0  0  0  0  0  0  0
   -2.8207    3.6133    2.2018 H   0  0  0  0  0  0  0  0  0  0  0  0
   -1.7573    4.2261    3.4377 H   0  0  0  0  0  0  0  0  0  0  0  0
   -1.9567    6.1958    1.7217 C   0  0  0  0  0  0  0  0  0  0  0  0
   -1.8167    7.0951    1.0876 H   0  0  0  0  0  0  0  0  0  0  0  0
   -1.7973    6.4984    2.7793 H   0  0  0  0  0  0  0  0  0  0  0  0
   -3.0123    5.9203    1.6641 H   0  0  0  0  0  0  0  0  0  0  0  0
    2.6425    3.8310   -1.1274 C   0  0  0  0  0  0  0  0  0  0  0  0
    2.7878    3.3668   -0.1333 H   0  0  0  0  0  0  0  0  0  0  0  0
    3.5588    4.4418   -1.2538 H   0  0  0  0  0  0  0  0  0  0  0  0
    2.6276    3.1088   -1.9692 H   0  0  0  0  0  0  0  0  0  0  0  0
    1.8315    5.8679   -2.6016 C   0  0  0  0  0  0  0  0  0  0  0  0
    1.2917    6.7907   -2.8723 H   0  0  0  0  0  0  0  0  0  0  0  0
    1.8847    5.2009   -3.4866 H   0  0  0  0  0  0  0  0  0  0  0  0
    2.8529    6.2296   -2.3626 H   0  0  0  0  0  0  0  0  0  0  0  0
  2  3  1  0  0  0  0
  2 17  1  0  0  0  0
  2 21  1  0  0  0  0
  3  6  1  0  0  0  0
  3  5  1  0  0  0  0
  3  1  1  0  0  0  0
  4  6  1  0  0  0  0
  4 13  1  0  0  0  0
  6  8  1  0  0  0  0
  6  7  1  0  0  0  0
  9  4  1  0  0  0  0
  9 10  1  0  0  0  0
  9 11  1  0  0  0  0
  9 12  1  0  0  0  0
 13 14  1  0  0  0  0
 13 15  1  0  0  0  0
 13 16  1  0  0  0  0
 17 18  1  0  0  0  0
 17 19  1  0  0  0  0
 17 20  1  0  0  0  0
 21 22  1  0  0  0  0
 21 23  1  0  0  0  0
 21 24  1  0  0  0  0
M  END
