
 OpenBabel03301715143D

 21 21  0  0  0  0  0  0  0  0999 V2000
    0.2873    0.2004    0.7412 O   0  0  0  0  0  0  0  0  0  0  0  0
    1.3905    0.1577    0.2103 C   0  0  0  0  0  0  0  0  0  0  0  0
    1.9720   -1.0564   -0.0645 N   0  0  0  0  0  0  0  0  0  0  0  0
    1.2694   -2.3145    0.1427 C   0  0  0  0  0  0  0  0  0  0  0  0
    3.3464   -1.1050   -0.5396 C   0  0  0  0  0  0  0  0  0  0  0  0
    3.5518   -0.0053   -1.5572 C   0  0  0  0  0  0  0  0  0  0  0  0
    3.2860    1.3380   -0.8639 C   0  0  0  0  0  0  0  0  0  0  0  0
    2.0343    1.3303   -0.1080 N   0  0  0  0  0  0  0  0  0  0  0  0
    1.4705    2.6047    0.3074 C   0  0  0  0  0  0  0  0  0  0  0  0
    0.2340   -2.1731    0.5171 H   0  0  0  0  0  0  0  0  0  0  0  0
    1.8214   -2.9316    0.8829 H   0  0  0  0  0  0  0  0  0  0  0  0
    1.2088   -2.8696   -0.8173 H   0  0  0  0  0  0  0  0  0  0  0  0
    3.5899   -2.1036   -0.9649 H   0  0  0  0  0  0  0  0  0  0  0  0
    4.0371   -0.9200    0.3130 H   0  0  0  0  0  0  0  0  0  0  0  0
    2.8248   -0.1585   -2.3855 H   0  0  0  0  0  0  0  0  0  0  0  0
    4.5799   -0.0182   -1.9784 H   0  0  0  0  0  0  0  0  0  0  0  0
    3.2462    2.1026   -1.6706 H   0  0  0  0  0  0  0  0  0  0  0  0
    4.1128    1.6055   -0.1703 H   0  0  0  0  0  0  0  0  0  0  0  0
    2.1072    3.4557   -0.0183 H   0  0  0  0  0  0  0  0  0  0  0  0
    1.3907    2.6387    1.4150 H   0  0  0  0  0  0  0  0  0  0  0  0
    0.4616    2.7366   -0.1386 H   0  0  0  0  0  0  0  0  0  0  0  0
  1  2  2  0  0  0  0
  2  3  1  0  0  0  0
  2  8  1  0  0  0  0
  3  4  1  0  0  0  0
  3  5  1  0  0  0  0
  4 10  1  0  0  0  0
  4 11  1  0  0  0  0
  4 12  1  0  0  0  0
  5  6  1  0  0  0  0
  5 13  1  0  0  0  0
  5 14  1  0  0  0  0
  6  7  1  0  0  0  0
  6 15  1  0  0  0  0
  6 16  1  0  0  0  0
  7  8  1  0  0  0  0
  7 17  1  0  0  0  0
  7 18  1  0  0  0  0
  8  9  1  0  0  0  0
  9 19  1  0  0  0  0
  9 20  1  0  0  0  0
  9 21  1  0  0  0  0
M  END
