
 OpenBabel03171709173D

 52 55  0  0  0  0  0  0  0  0999 V2000
   -0.0076    8.0180   -5.7786 H   0  0  0  0  0  0  0  0  0  0  0  0
    0.2080    7.4375   -4.8910 C   0  0  0  0  0  0  0  0  0  0  0  0
   -1.6165    6.2997   -4.9990 H   0  0  0  0  0  0  0  0  0  0  0  0
   -0.6988    6.4691   -4.4511 C   0  0  0  0  0  0  0  0  0  0  0  0
    1.3936    7.6552   -4.1845 C   0  0  0  0  0  0  0  0  0  0  0  0
    2.0962    8.4052   -4.5245 H   0  0  0  0  0  0  0  0  0  0  0  0
   -0.4193    5.7162   -3.3065 C   0  0  0  0  0  0  0  0  0  0  0  0
   -3.9901    7.7568   -1.0036 H   0  0  0  0  0  0  0  0  0  0  0  0
    1.6759    6.9007   -3.0424 C   0  0  0  0  0  0  0  0  0  0  0  0
   -5.4448    5.9469   -1.8585 H   0  0  0  0  0  0  0  0  0  0  0  0
   -1.1220    4.9746   -2.9779 H   0  0  0  0  0  0  0  0  0  0  0  0
   -3.7410    6.7226   -0.8034 C   0  0  0  0  0  0  0  0  0  0  0  0
   -4.5601    5.7061   -1.2834 C   0  0  0  0  0  0  0  0  0  0  0  0
    0.7696    5.9217   -2.5990 C   0  0  0  0  0  0  0  0  0  0  0  0
    2.6006    7.0710   -2.5059 H   0  0  0  0  0  0  0  0  0  0  0  0
   -2.6008    6.4111   -0.0591 C   0  0  0  0  0  0  0  0  0  0  0  0
   -1.9983    7.2274    0.2994 H   0  0  0  0  0  0  0  0  0  0  0  0
   -4.2356    4.3784   -1.0221 C   0  0  0  0  0  0  0  0  0  0  0  0
    0.0448    6.9210   -0.3144 H   0  0  0  0  0  0  0  0  0  0  0  0
   -4.8691    3.5856   -1.3991 H   0  0  0  0  0  0  0  0  0  0  0  0
   -2.2533    5.0721    0.2237 C   0  0  0  0  0  0  0  0  0  0  0  0
    1.1632    4.8943   -1.1064 P   0  0  0  0  0  0  0  0  0  0  0  0
   -3.0940    4.0635   -0.2766 C   0  0  0  0  0  0  0  0  0  0  0  0
    0.9331    6.3748    0.0472 C   0  0  0  0  0  0  0  0  0  0  0  0
    1.7794    3.5113   -3.7445 H   0  0  0  0  0  0  0  0  0  0  0  0
   -0.7135    4.7517    1.2787 P   0  0  0  0  0  0  0  0  0  0  0  0
    1.7780    7.0885   -0.0432 H   0  0  0  0  0  0  0  0  0  0  0  0
   -2.8907    3.0355   -0.1220 H   0  0  0  0  0  0  0  0  0  0  0  0
    2.7051    3.6300   -3.1962 C   0  0  0  0  0  0  0  0  0  0  0  0
    2.7081    4.2147   -1.9130 C   0  0  0  0  0  0  0  0  0  0  0  0
    0.6511    5.9764    1.4904 C   0  0  0  0  0  0  0  0  0  0  0  0
    0.3456    6.8915    2.0346 H   0  0  0  0  0  0  0  0  0  0  0  0
    3.9018    3.1949   -3.7754 C   0  0  0  0  0  0  0  0  0  0  0  0
    3.9362    4.4180   -1.2672 C   0  0  0  0  0  0  0  0  0  0  0  0
   -1.6860    7.3714    2.5634 H   0  0  0  0  0  0  0  0  0  0  0  0
    3.8926    2.7328   -4.7538 H   0  0  0  0  0  0  0  0  0  0  0  0
   -1.8190    5.2015    2.7294 C   0  0  0  0  0  0  0  0  0  0  0  0
    1.5181    5.5495    2.0079 H   0  0  0  0  0  0  0  0  0  0  0  0
    3.9665    4.9224   -0.3117 H   0  0  0  0  0  0  0  0  0  0  0  0
   -2.1096    6.5332    3.0923 C   0  0  0  0  0  0  0  0  0  0  0  0
    5.1120    3.3659   -3.0989 C   0  0  0  0  0  0  0  0  0  0  0  0
    5.1294    3.9869   -1.8496 C   0  0  0  0  0  0  0  0  0  0  0  0
   -2.4381    4.1600    3.4442 C   0  0  0  0  0  0  0  0  0  0  0  0
   -2.2500    3.1290    3.1731 H   0  0  0  0  0  0  0  0  0  0  0  0
   -2.9726    6.8066    4.1572 C   0  0  0  0  0  0  0  0  0  0  0  0
    6.0381    3.0339   -3.5496 H   0  0  0  0  0  0  0  0  0  0  0  0
    6.0687    4.1417   -1.3340 H   0  0  0  0  0  0  0  0  0  0  0  0
   -3.1856    7.8324    4.4296 H   0  0  0  0  0  0  0  0  0  0  0  0
   -3.3024    4.4386    4.5068 C   0  0  0  0  0  0  0  0  0  0  0  0
   -3.5668    5.7613    4.8653 C   0  0  0  0  0  0  0  0  0  0  0  0
   -3.7687    3.6282    5.0516 H   0  0  0  0  0  0  0  0  0  0  0  0
   -4.2364    5.9770    5.6877 H   0  0  0  0  0  0  0  0  0  0  0  0
  2  1  1  0  0  0  0
  4  2  2  0  0  0  0
  4  3  1  0  0  0  0
  5  2  1  0  0  0  0
  5  6  1  0  0  0  0
  7  4  1  0  0  0  0
  7 11  1  0  0  0  0
  9  5  2  0  0  0  0
  9 15  1  0  0  0  0
 12 13  2  0  0  0  0
 12  8  1  0  0  0  0
 13 10  1  0  0  0  0
 14  7  2  0  0  0  0
 14  9  1  0  0  0  0
 16 12  1  0  0  0  0
 16 17  1  0  0  0  0
 18 13  1  0  0  0  0
 18 20  1  0  0  0  0
 21 16  2  0  0  0  0
 21 23  1  0  0  0  0
 22 24  1  0  0  0  0
 22 30  1  0  0  0  0
 22 14  1  0  0  0  0
 23 18  2  0  0  0  0
 23 28  1  0  0  0  0
 24 31  1  0  0  0  0
 24 27  1  0  0  0  0
 24 19  1  0  0  0  0
 26 31  1  0  0  0  0
 26 21  1  0  0  0  0
 26 37  1  0  0  0  0
 29 33  2  0  0  0  0
 29 25  1  0  0  0  0
 30 34  2  0  0  0  0
 30 29  1  0  0  0  0
 31 38  1  0  0  0  0
 31 32  1  0  0  0  0
 33 41  1  0  0  0  0
 33 36  1  0  0  0  0
 34 42  1  0  0  0  0
 34 39  1  0  0  0  0
 37 43  2  0  0  0  0
 37 40  1  0  0  0  0
 40 45  2  0  0  0  0
 40 35  1  0  0  0  0
 41 46  1  0  0  0  0
 42 41  2  0  0  0  0
 42 47  1  0  0  0  0
 43 49  1  0  0  0  0
 43 44  1  0  0  0  0
 45 50  1  0  0  0  0
 45 48  1  0  0  0  0
 49 50  2  0  0  0  0
 49 51  1  0  0  0  0
 50 52  1  0  0  0  0
M  END
