
 OpenBabel03281617423D

 12 11  0  0  0  0  0  0  0  0999 V2000
    0.6199   -0.5527   -2.2542 N   0  0  0  0  0  0  0  0  0  0  0  0
    0.5945   -3.0933   -3.4096 N   0  0  0  0  0  0  0  0  0  0  0  0
   -0.2724   -2.0498   -3.9613 C   0  0  0  0  0  0  0  0  0  0  0  0
    0.3530   -0.6817   -3.6884 C   0  0  0  0  0  0  0  0  0  0  0  0
   -0.3071    0.1408   -4.0413 H   0  0  0  0  0  0  0  0  0  0  0  0
    1.3018   -0.6120   -4.2565 H   0  0  0  0  0  0  0  0  0  0  0  0
   -1.2647   -2.0845   -3.4693 H   0  0  0  0  0  0  0  0  0  0  0  0
   -0.4354   -2.2085   -5.0499 H   0  0  0  0  0  0  0  0  0  0  0  0
   -0.2797   -0.3464   -1.7634 H   0  0  0  0  0  0  0  0  0  0  0  0
    1.2642    0.2504   -2.0894 H   0  0  0  0  0  0  0  0  0  0  0  0
    1.4066   -3.2291   -4.0537 H   0  0  0  0  0  0  0  0  0  0  0  0
    0.0711   -3.9940   -3.3627 H   0  0  0  0  0  0  0  0  0  0  0  0
  1  9  1  0  0  0  0
  1 10  1  0  0  0  0
  2  3  1  0  0  0  0
  2 11  1  0  0  0  0
  2 12  1  0  0  0  0
  3  4  1  0  0  0  0
  3  7  1  0  0  0  0
  3  8  1  0  0  0  0
  4  1  1  0  0  0  0
  4  5  1  0  0  0  0
  4  6  1  0  0  0  0
M  END
