H2S Hydrogen sulfide 7783064
##CCCBDB 5172214:11
Geometry Optimized at CCSD(T)=FULL/6-31G*
  3  2  0  0  0  0  0  0  0  0999 V2000
    0.0000    0.0000    0.1032 S   0  0  0  0  0  0  0  0  0  0  0  0
    0.0000    0.9779   -0.8254 H   0  0  0  0  0  0  0  0  0  0  0  0
    0.0000   -0.9779   -0.8254 H   0  0  0  0  0  0  0  0  0  0  0  0
  1  2  1  0  0  0
  1  3  1  0  0  0
M  END
