
 OpenBabel04052119063D

  3  2  0  0  0  0  0  0  0  0999 V2000
   -0.6086    0.5884    0.0134 S   0  0  0  0  0  0  0  0  0  0  0  0
    0.7192    0.4039   -0.0209 H   0  0  0  0  0  0  0  0  0  0  0  0
   -0.8742   -0.7039   -0.2268 H   0  0  0  0  0  0  0  0  0  0  0  0
  1  2  1  0  0  0  0
  1  3  1  0  0  0  0
M  END
