
 OpenBabel10091800053D

 12 12  0  0  0  0  0  0  0  0999 V2000
   -0.7754    0.4951    0.5394 O   0  0  0  0  0  0  0  0  0  0  0  0
    0.4025    0.5617    0.2244 C   0  0  0  0  0  0  0  0  0  0  0  0
    1.0789    1.7037    0.1575 N   0  0  0  0  0  0  0  0  0  0  0  0
    2.4441    1.4547   -0.2413 C   0  0  0  0  0  0  0  0  0  0  0  0
    2.4859   -0.0981   -0.4130 C   0  0  0  0  0  0  0  0  0  0  0  0
    1.1383   -0.5004   -0.0863 N   0  0  0  0  0  0  0  0  0  0  0  0
    3.1393    1.7928    0.5567 H   0  0  0  0  0  0  0  0  0  0  0  0
    2.6593    1.9741   -1.1996 H   0  0  0  0  0  0  0  0  0  0  0  0
    3.2024   -0.5650    0.2963 H   0  0  0  0  0  0  0  0  0  0  0  0
    2.7224   -0.3836   -1.4604 H   0  0  0  0  0  0  0  0  0  0  0  0
    0.6831    2.6333    0.3616 H   0  0  0  0  0  0  0  0  0  0  0  0
    0.7939   -1.4719   -0.0925 H   0  0  0  0  0  0  0  0  0  0  0  0
  1  2  2  0  0  0  0
  2  3  1  0  0  0  0
  2  6  1  0  0  0  0
  3  4  1  0  0  0  0
  4  5  1  0  0  0  0
  4  7  1  0  0  0  0
  4  8  1  0  0  0  0
  5  6  1  0  0  0  0
  5  9  1  0  0  0  0
  5 10  1  0  0  0  0
 11  3  1  0  0  0  0
 12  6  1  0  0  0  0
M  END
