
 OpenBabel10261611433D

 14 13  0  0  0  0  0  0  0  0999 V2000
    1.8413    1.8120   -1.7583 O   0  0  0  0  0  0  0  0  0  0  0  0
   -1.2403    1.7181   -2.1189 O   0  0  0  0  0  0  0  0  0  0  0  0
    3.1456    0.0851   -1.0632 O   0  0  0  0  0  0  0  0  0  0  0  0
   -2.5556   -0.0956   -1.7344 O   0  0  0  0  0  0  0  0  0  0  0  0
    0.0918   -0.1067    0.3336 N   0  0  0  0  0  0  0  0  0  0  0  0
    1.3186    0.7062    0.3378 C   0  0  0  0  0  0  0  0  0  0  0  0
   -1.1488    0.6309    0.0484 C   0  0  0  0  0  0  0  0  0  0  0  0
    2.1297    0.8405   -0.9918 C   0  0  0  0  0  0  0  0  0  0  0  0
   -1.6356    0.7236   -1.4340 C   0  0  0  0  0  0  0  0  0  0  0  0
    2.0007    0.2540    1.0670 H   0  0  0  0  0  0  0  0  0  0  0  0
    1.1098    1.7049    0.7398 H   0  0  0  0  0  0  0  0  0  0  0  0
   -1.9517    0.1313    0.6025 H   0  0  0  0  0  0  0  0  0  0  0  0
   -1.0999    1.6371    0.4812 H   0  0  0  0  0  0  0  0  0  0  0  0
    0.1385   -1.1078    0.1744 H   0  0  0  0  0  0  0  0  0  0  0  0
  1  8  1  0  0  0  0
  2  9  1  0  0  0  0
  3  8  2  0  0  0  0
  4  9  2  0  0  0  0
  5  6  1  0  0  0  0
  5  7  1  0  0  0  0
  5 14  1  0  0  0  0
  6  8  1  0  0  0  0
  6 10  1  0  0  0  0
  6 11  1  0  0  0  0
  7  9  1  0  0  0  0
  7 12  1  0  0  0  0
  7 13  1  0  0  0  0
M  CHG  2   1  -1   2  -1
M  END
