
 OpenBabel10081812573D

  6  5  0  0  0  0  0  0  0  0999 V2000
    0.0000    0.0000    0.0000 C   0  0  0  0  0  0  0  0  0  0  0  0
   -0.1588   -1.4902    0.0643 O   0  0  0  0  0  0  0  0  0  0  0  0
    0.7885   -1.9426    0.0838 H   0  0  0  0  0  0  0  0  0  0  0  0
   -0.9834    0.4697   -0.0203 H   0  0  0  0  0  0  0  0  0  0  0  0
    0.5494    0.3450    0.8759 H   0  0  0  0  0  0  0  0  0  0  0  0
    0.5494    0.2682   -0.9024 H   0  0  0  0  0  0  0  0  0  0  0  0
  1  2  1  0  0  0  0
  1  5  1  0  0  0  0
  2  3  1  0  0  0  0
  4  1  1  0  0  0  0
  6  1  1  0  0  0  0
M  END
