
 OpenBabel11011616073D

  5  4  0  0  0  0  0  0  0  0999 V2000
   -2.8855    1.9641   -0.0681 S   0  0  0  0  0  0  0  0  0  0  0  0
   -1.0949    1.6850   -0.1627 C   0  0  0  0  0  0  0  0  0  0  0  0
   -0.8592    1.0242   -1.0224 H   0  0  0  0  0  0  0  0  0  0  0  0
   -0.7270    1.2576    0.7930 H   0  0  0  0  0  0  0  0  0  0  0  0
   -0.5914    2.6601   -0.3247 H   0  0  0  0  0  0  0  0  0  0  0  0
  2  1  1  0  0  0  0
  2  3  1  0  0  0  0
  2  4  1  0  0  0  0
  2  5  1  0  0  0  0
M  CHG  1   1  -1
M  END
