N Hydrogen cyanide 74908
##CCCBDB 5172213:37
Geometry Optimized at CCSD(T)=FULL/6-31G*
  3  2  0  0  0  0  0  0  0  0999 V2000
    0.0000    0.0000   -0.5082 C   0  0  0  0  0  0  0  0  0  0  0  0
    0.0000    0.0000   -1.5813 H   0  0  0  0  0  0  0  0  0  0  0  0
    0.0000    0.0000    0.6615 N   0  0  0  0  0  0  0  0  0  0  0  0
  1  2  1  0  0  0
  1  3  3  0  0  0
M  END
