NO2- Nitrogen dioxide anion 10102440
##CCCBDB 5172217:12
Geometry Optimized at CCSD(T)/cc-pVDZ
  3  2  0  0  0  0  0  0  0  0999 V2000
    0.0000    0.0000    0.4713 N   0  0  0  0  0  0  0  0  0  0  0  0
    0.0000    1.0798   -0.2062 O   0  0  0  0  0  0  0  0  0  0  0  0
    0.0000   -1.0798   -0.2062 O   0  0  0  0  0  0  0  0  0  0  0  0
  1  2  1  0  0  0
  1  3  1  0  0  0
M  CHG  1   2  -1
M  END
