NO3- nitrate anion 12033497
##CCCBDB 5172217:09
Geometry Optimized at CCSD(T)=FULL/6-31G*
  4  3  0  0  0  0  0  0  0  0999 V2000
    0.0000    0.0000    0.0000 N   0  0  0  0  0  0  0  0  0  0  0  0
    0.0000    1.2693    0.0000 O   0  0  0  0  0  0  0  0  0  0  0  0
    1.0993   -0.6347    0.0000 O   0  0  0  0  0  0  0  0  0  0  0  0
   -1.0993   -0.6347    0.0000 O   0  0  0  0  0  0  0  0  0  0  0  0
  1  2  1  0  0  0
  1  3  1  0  0  0
  1  4  1  0  0  0
M  CHG  1   2  -1
M  RAD  1   2   2
M  END
