NO- nitric oxide anion 10102439
##CCCBDB 5172213:56
Geometry Optimized at CCSD(T)=FULL/6-31G*
  2  1  0  0  0  0  0  0  0  0999 V2000
    0.0000    0.0000   -0.6873 N   0  0  0  0  0  0  0  0  0  0  0  0
    0.0000    0.0000    0.6013 O   0  0  0  0  0  0  0  0  0  0  0  0
  1  2  2  0  0  0
M  CHG  1   1  -1
M  RAD  1   1   3
M  END
