H2CO Formaldehyde 50000
##CCCBDB 5172213:53
Geometry Optimized at CCSD(T)=FULL/6-311G**
  4  3  0  0  0  0  0  0  0  0999 V2000
    0.0000    0.0000    0.6786 O   0  0  0  0  0  0  0  0  0  0  0  0
    0.0000    0.0000   -0.5310 C   0  0  0  0  0  0  0  0  0  0  0  0
    0.0000    0.9387   -1.1215 H   0  0  0  0  0  0  0  0  0  0  0  0
    0.0000   -0.9387   -1.1215 H   0  0  0  0  0  0  0  0  0  0  0  0
  1  2  2  0  0  0
  2  3  1  0  0  0
  2  4  1  0  0  0
M  END
