
 OpenBabel11111614413D

  9  8  0  0  0  0  0  0  0  0999 V2000
   -2.2297   -0.4537   -0.0704 O   0  0  0  0  0  0  0  0  0  0  0  0
   -0.8208   -0.4489   -0.0684 C   0  0  0  0  0  0  0  0  0  0  0  0
   -2.6945    0.7735    0.4427 C   0  0  0  0  0  0  0  0  0  0  0  0
   -3.8037    0.7569    0.4358 H   0  0  0  0  0  0  0  0  0  0  0  0
   -2.3777    1.6266   -0.1978 H   0  0  0  0  0  0  0  0  0  0  0  0
   -2.3777    0.9168    1.4999 H   0  0  0  0  0  0  0  0  0  0  0  0
   -0.4679   -1.4192   -0.4741 H   0  0  0  0  0  0  0  0  0  0  0  0
   -0.4172   -0.3622    0.9651 H   0  0  0  0  0  0  0  0  0  0  0  0
   -0.4172    0.3476   -0.7326 H   0  0  0  0  0  0  0  0  0  0  0  0
  1  2  1  0  0  0  0
  1  3  1  0  0  0  0
  2  7  1  0  0  0  0
  2  8  1  0  0  0  0
  2  9  1  0  0  0  0
  3  4  1  0  0  0  0
  3  5  1  0  0  0  0
  3  6  1  0  0  0  0
M  END
