
 OpenBabel11031613033D

 15 15  0  0  1  0  0  0  0  0999 V2000
   -2.0770   -4.7453   -5.4747 C   0  0  0  0  0  0  0  0  0  0  0  0
   -1.1478   -4.0589   -5.4081 N   0  0  0  0  0  0  0  0  0  0  0  0
   -3.2317   -5.6063   -5.5624 C   0  0  2  0  0  0  0  0  0  0  0  0
   -3.5526   -6.7043   -4.7544 C   0  0  0  0  0  0  0  0  0  0  0  0
   -4.6706   -7.3013   -5.1890 C   0  0  0  0  0  0  0  0  0  0  0  0
   -5.1496   -6.5365   -6.3212 C   0  0  0  0  0  0  0  0  0  0  0  0
   -4.2626   -5.5752   -6.5166 C   0  0  0  0  0  0  0  0  0  0  0  0
   -4.3158   -4.6060   -7.5338 C   0  0  0  0  0  0  0  0  0  0  0  0
   -4.3593   -3.8126   -8.3665 N   0  0  0  0  0  0  0  0  0  0  0  0
   -6.3052   -6.7902   -7.0808 C   0  0  0  0  0  0  0  0  0  0  0  0
   -7.2513   -6.9979   -7.7026 N   0  0  0  0  0  0  0  0  0  0  0  0
   -5.3028   -8.4485   -4.5797 C   0  0  0  0  0  0  0  0  0  0  0  0
   -5.7449   -9.3953   -4.0825 N   0  0  0  0  0  0  0  0  0  0  0  0
   -2.7539   -7.0894   -3.6633 C   0  0  0  0  0  0  0  0  0  0  0  0
   -2.0999   -7.4046   -2.7701 N   0  0  0  0  0  0  0  0  0  0  0  0
  1  2  3  0  0  0  0
  3  1  1  6  0  0  0
  3  4  1  0  0  0  0
  3  7  1  0  0  0  0
  4  5  2  0  0  0  0
  4 14  1  0  0  0  0
  5  6  1  0  0  0  0
  5 12  1  0  0  0  0
  6  7  2  0  0  0  0
  6 10  1  0  0  0  0
  7  8  1  0  0  0  0
  8  9  3  0  0  0  0
 10 11  3  0  0  0  0
 12 13  3  0  0  0  0
 14 15  3  0  0  0  0
M  CHG  1   3  -1
M  END
