
 OpenBabel10101816413D

 16 16  0  0  0  0  0  0  0  0999 V2000
    2.0499    0.0434    0.1018 N   0  0  0  0  0  0  0  0  0  0  0  0
    3.4697    0.1347    0.0822 C   0  0  0  0  0  0  0  0  0  0  0  0
    4.1355    1.3801   -0.1017 C   0  0  0  0  0  0  0  0  0  0  0  0
    5.5157    1.3853   -0.3696 C   0  0  0  0  0  0  0  0  0  0  0  0
    6.2303    0.1900   -0.4556 C   0  0  0  0  0  0  0  0  0  0  0  0
    5.5791   -1.0281   -0.2757 C   0  0  0  0  0  0  0  0  0  0  0  0
    4.2099   -1.0571   -0.0088 C   0  0  0  0  0  0  0  0  0  0  0  0
    3.4543    2.6269   -0.0245 N   0  0  0  0  0  0  0  0  0  0  0  0
    6.0381    2.3232   -0.5123 H   0  0  0  0  0  0  0  0  0  0  0  0
    6.1364   -1.9536   -0.3430 H   0  0  0  0  0  0  0  0  0  0  0  0
    3.7198   -2.0131    0.1283 H   0  0  0  0  0  0  0  0  0  0  0  0
    7.2926    0.2092   -0.6625 H   0  0  0  0  0  0  0  0  0  0  0  0
    1.4949    0.2243    0.9453 H   0  0  0  0  0  0  0  0  0  0  0  0
    3.1443    3.0344    0.8643 H   0  0  0  0  0  0  0  0  0  0  0  0
    1.5398   -0.2136   -0.7562 H   0  0  0  0  0  0  0  0  0  0  0  0
    3.2548    3.1575   -0.8854 H   0  0  0  0  0  0  0  0  0  0  0  0
  1  2  1  0  0  0  0
  1 13  1  0  0  0  0
  2  3  2  0  0  0  0
  2  7  1  0  0  0  0
  3  4  1  0  0  0  0
  3  8  1  0  0  0  0
  4  5  2  0  0  0  0
  4  9  1  0  0  0  0
  5  6  1  0  0  0  0
  6  7  2  0  0  0  0
  6 10  1  0  0  0  0
  7 11  1  0  0  0  0
  8 14  1  0  0  0  0
 12  5  1  0  0  0  0
 15  1  1  0  0  0  0
 16  8  1  0  0  0  0
M  END
