
 OpenBabel10241617113D

 23 25  0  0  0  0  0  0  0  0999 V2000
   -1.2329   -0.5746    0.0485 C   0  0  0  0  0  0  0  0  0  0  0  0
   -2.6179   -0.3267    0.1360 C   0  0  0  0  0  0  0  0  0  0  0  0
   -3.1045    1.0038    0.1819 C   0  0  0  0  0  0  0  0  0  0  0  0
   -2.2080    2.0902    0.1298 C   0  0  0  0  0  0  0  0  0  0  0  0
   -0.8512    1.8016    0.0395 C   0  0  0  0  0  0  0  0  0  0  0  0
   -0.3819    0.5255    0.0091 C   0  0  0  0  0  0  0  0  0  0  0  0
    0.1657    2.6195   -0.0159 O   0  0  0  0  0  0  0  0  0  0  0  0
    1.2559    1.8699   -0.0665 C   0  0  0  0  0  0  0  0  0  0  0  0
    0.9591    0.5424   -0.0520 N   0  0  0  0  0  0  0  0  0  0  0  0
   -0.8458   -1.5848    0.0170 H   0  0  0  0  0  0  0  0  0  0  0  0
   -3.3123   -1.1559    0.1732 H   0  0  0  0  0  0  0  0  0  0  0  0
   -4.1684    1.1866    0.2577 H   0  0  0  0  0  0  0  0  0  0  0  0
   -2.5623    3.1121    0.1657 H   0  0  0  0  0  0  0  0  0  0  0  0
    2.6281    2.4117   -0.0916 C   0  0  0  0  0  0  0  0  0  0  0  0
    3.7357    1.5590    0.0591 C   0  0  0  0  0  0  0  0  0  0  0  0
    5.0320    2.0838    0.0627 C   0  0  0  0  0  0  0  0  0  0  0  0
    5.2327    3.4575   -0.0959 C   0  0  0  0  0  0  0  0  0  0  0  0
    4.1374    4.3101   -0.2562 C   0  0  0  0  0  0  0  0  0  0  0  0
    2.8384    3.7923   -0.2492 C   0  0  0  0  0  0  0  0  0  0  0  0
    1.9991    4.4658   -0.3714 H   0  0  0  0  0  0  0  0  0  0  0  0
    6.2369    3.8614   -0.0932 H   0  0  0  0  0  0  0  0  0  0  0  0
    4.2945    5.3736   -0.3822 H   0  0  0  0  0  0  0  0  0  0  0  0
    5.8812    1.4252    0.1919 H   0  0  0  0  0  0  0  0  0  0  0  0
  1  2  1  0  0  0  0
  1  6  2  0  0  0  0
  1 10  1  0  0  0  0
  2  3  2  0  0  0  0
  2 11  1  0  0  0  0
  3  4  1  0  0  0  0
  3 12  1  0  0  0  0
  4  5  2  0  0  0  0
  4 13  1  0  0  0  0
  5  6  1  0  0  0  0
  5  7  1  0  0  0  0
  7  8  1  0  0  0  0
  8  9  2  0  0  0  0
  8 14  1  0  0  0  0
  9  6  1  0  0  0  0
 14 15  1  0  0  0  0
 15 16  2  0  0  0  0
 16 17  1  0  0  0  0
 16 23  1  0  0  0  0
 17 18  2  0  0  0  0
 17 21  1  0  0  0  0
 18 19  1  0  0  0  0
 18 22  1  0  0  0  0
 19 14  2  0  0  0  0
 19 20  1  0  0  0  0
M  CHG  1  15  -1
M  END
