
 OpenBabel03301714483D

 35 36  0  0  0  0  0  0  0  0999 V2000
    0.3364    0.5466   -0.0302 O   0  3  0  0  0  0  0  0  0  0  0  0
    1.6937    0.5151   -0.0663 C   0  0  0  0  0  0  0  0  0  0  0  0
    2.8831    1.5476   -0.2667 C   0  0  0  0  0  0  0  0  0  0  0  0
    4.0424    0.6914   -0.3495 C   0  0  0  0  0  0  0  0  0  0  0  0
    3.7229   -0.5590   -0.1152 N   0  0  0  0  0  0  0  0  0  0  0  0
    2.4102   -0.7165    0.0462 N   0  0  0  0  0  0  0  0  0  0  0  0
    2.0902   -2.1006    0.1994 C   0  0  0  0  0  0  0  0  0  0  0  0
    2.0603   -2.6879    1.4766 C   0  0  0  0  0  0  0  0  0  0  0  0
    2.1256   -4.0866    1.6042 C   0  0  0  0  0  0  0  0  0  0  0  0
    2.2429   -4.9004    0.4683 C   0  0  0  0  0  0  0  0  0  0  0  0
    2.3063   -4.3237   -0.7984 C   0  0  0  0  0  0  0  0  0  0  0  0
    2.2526   -2.9384   -0.9287 C   0  0  0  0  0  0  0  0  0  0  0  0
    4.7833   -1.6180   -0.0698 C   0  0  0  0  0  0  0  0  0  0  0  0
    5.5472    0.9880   -0.6680 C   0  0  0  0  0  0  0  0  0  0  0  0
    3.4822    3.0805   -0.5015 C   0  0  0  0  0  0  0  0  0  0  0  0
    3.5873    3.3539   -2.0082 C   0  0  0  0  0  0  0  0  0  0  0  0
    3.8558    4.4506    0.2835 C   0  0  0  0  0  0  0  0  0  0  0  0
    2.0540   -2.0677    2.3616 H   0  0  0  0  0  0  0  0  0  0  0  0
    2.1237   -4.5431    2.5834 H   0  0  0  0  0  0  0  0  0  0  0  0
    2.3129   -5.9759    0.5660 H   0  0  0  0  0  0  0  0  0  0  0  0
    2.4364   -4.9429   -1.6787 H   0  0  0  0  0  0  0  0  0  0  0  0
    2.4013   -2.5017   -1.9102 H   0  0  0  0  0  0  0  0  0  0  0  0
    5.5281   -1.3707    0.7141 H   0  0  0  0  0  0  0  0  0  0  0  0
    5.2894   -1.6998   -1.0550 H   0  0  0  0  0  0  0  0  0  0  0  0
    4.4560   -2.6363    0.1878 H   0  0  0  0  0  0  0  0  0  0  0  0
    5.9012    1.9802   -1.0093 H   0  0  0  0  0  0  0  0  0  0  0  0
    5.8683    0.3685   -1.5259 H   0  0  0  0  0  0  0  0  0  0  0  0
    6.1653    0.7433    0.2212 H   0  0  0  0  0  0  0  0  0  0  0  0
    4.4634    2.9159   -0.1170 H   0  0  0  0  0  0  0  0  0  0  0  0
    2.5992    3.6377   -2.4125 H   0  0  0  0  0  0  0  0  0  0  0  0
    3.9681    2.4589   -2.5426 H   0  0  0  0  0  0  0  0  0  0  0  0
    4.3125    4.1698   -2.2296 H   0  0  0  0  0  0  0  0  0  0  0  0
    3.2396    5.3620    0.2394 H   0  0  0  0  0  0  0  0  0  0  0  0
    4.7668    4.9259   -0.1669 H   0  0  0  0  0  0  0  0  0  0  0  0
    4.1823    4.3396    1.3463 H   0  0  0  0  0  0  0  0  0  0  0  0
  1  2  2  0  0  0  0
  2  3  1  0  0  0  0
  2  6  1  0  0  0  0
  3  4  2  0  0  0  0
  3 15  1  0  0  0  0
  4  5  1  0  0  0  0
  4 14  1  0  0  0  0
  5  6  1  0  0  0  0
  5 13  1  0  0  0  0
  6  7  1  0  0  0  0
  7  8  2  0  0  0  0
  7 12  1  0  0  0  0
  8  9  1  0  0  0  0
  8 18  1  0  0  0  0
  9 10  2  0  0  0  0
  9 19  1  0  0  0  0
 10 11  1  0  0  0  0
 10 20  1  0  0  0  0
 11 12  2  0  0  0  0
 11 21  1  0  0  0  0
 12 22  1  0  0  0  0
 13 23  1  0  0  0  0
 13 24  1  0  0  0  0
 13 25  1  0  0  0  0
 14 26  1  0  0  0  0
 14 27  1  0  0  0  0
 14 28  1  0  0  0  0
 15 16  1  0  0  0  0
 15 17  1  0  0  0  0
 15 29  1  0  0  0  0
 16 30  1  0  0  0  0
 16 31  1  0  0  0  0
 16 32  1  0  0  0  0
 17 33  1  0  0  0  0
 17 34  1  0  0  0  0
 17 35  1  0  0  0  0
M  CHG  1   1   0
M  END
