
 OpenBabel07041716393D

  9  8  0  0  0  0  0  0  0  0999 V2000
    2.7720    0.0324    0.4577 C   0  0  0  0  0  0  0  0  0  0  0  0
    1.5805    0.2901   -0.0952 C   0  5  0  0  0  0  0  0  0  0  0  0
    3.6815    0.0863   -0.1329 H   0  0  0  0  0  0  0  0  0  0  0  0
    2.8697   -0.2367    1.5048 H   0  0  0  0  0  0  0  0  0  0  0  0
    1.5315    0.5558   -1.1489 H   0  0  0  0  0  0  0  0  0  0  0  0
    0.2842    0.2384    0.6446 C   0  0  0  0  0  0  0  0  0  0  0  0
    0.4190   -0.0355    1.6958 H   0  0  0  0  0  0  0  0  0  0  0  0
   -0.3798   -0.4982    0.1822 H   0  0  0  0  0  0  0  0  0  0  0  0
   -0.2060    1.2160    0.6065 H   0  0  0  0  0  0  0  0  0  0  0  0
  1  2  2  0  0  0  0
  1  3  1  0  0  0  0
  1  4  1  0  0  0  0
  2  5  1  0  0  0  0
  2  6  1  0  0  0  0
  6  7  1  0  0  0  0
  6  8  1  0  0  0  0
  6  9  1  0  0  0  0
M  CHG  1   2  -1
M  END
