
 OpenBabel11161612323D

 16 17  0  0  0  0  0  0  0  0999 V2000
   -1.3880    1.0961    0.4995 S   0  5  0  0  0  0  0  0  0  0  0  0
    0.3001    0.7706   -0.0187 C   0  0  0  0  0  0  0  0  0  0  0  0
    1.3602    1.6083    0.3793 C   0  0  0  0  0  0  0  0  0  0  0  0
    0.5556   -0.3403   -0.8321 N   0  0  0  0  0  0  0  0  0  0  0  0
    2.6657    1.3315   -0.0439 N   0  0  0  0  0  0  0  0  0  0  0  0
    2.9260    0.2208   -0.8595 C   0  0  0  0  0  0  0  0  0  0  0  0
    1.8622   -0.6240   -1.2541 C   0  0  0  0  0  0  0  0  0  0  0  0
    1.0737    3.0366    1.4291 S   0  5  0  0  0  0  0  0  0  0  0  0
    4.2331   -0.0612   -1.2860 C   0  0  0  0  0  0  0  0  0  0  0  0
    2.1250   -1.7402   -2.0642 C   0  0  0  0  0  0  0  0  0  0  0  0
    4.4819   -1.1752   -2.0933 C   0  0  0  0  0  0  0  0  0  0  0  0
    3.4317   -2.0129   -2.4793 C   0  0  0  0  0  0  0  0  0  0  0  0
    5.0577    0.5782   -0.9942 H   0  0  0  0  0  0  0  0  0  0  0  0
    5.4913   -1.3904   -2.4194 H   0  0  0  0  0  0  0  0  0  0  0  0
    3.6311   -2.8755   -3.1020 H   0  0  0  0  0  0  0  0  0  0  0  0
    1.3213   -2.3985   -2.3721 H   0  0  0  0  0  0  0  0  0  0  0  0
  2  1  1  0  0  0  0
  2  3  1  0  0  0  0
  2  4  2  0  0  0  0
  3  5  2  0  0  0  0
  5  6  1  0  0  0  0
  6  7  2  0  0  0  0
  6  9  1  0  0  0  0
  7  4  1  0  0  0  0
  7 10  1  0  0  0  0
  8  3  1  0  0  0  0
  9 11  2  0  0  0  0
  9 13  1  0  0  0  0
 10 16  1  0  0  0  0
 11 12  1  0  0  0  0
 11 14  1  0  0  0  0
 12 10  2  0  0  0  0
 12 15  1  0  0  0  0
M  CHG  2   1  -1   8  -1
M  END
