
 OpenBabel10091823193D

 34 35  0  0  0  0  0  0  0  0999 V2000
    8.5495    2.8113    0.3574 C   0  0  0  0  0  0  0  0  0  0  0  0
    8.0596    4.0945    0.5737 C   0  0  0  0  0  0  0  0  0  0  0  0
    6.6840    4.3180    0.5655 C   0  0  0  0  0  0  0  0  0  0  0  0
    5.7946    3.2504    0.3412 C   0  0  0  0  0  0  0  0  0  0  0  0
    6.2592    1.9369    0.1253 C   0  0  0  0  0  0  0  0  0  0  0  0
    7.6675    1.7290    0.1325 C   0  0  0  0  0  0  0  0  0  0  0  0
    5.2347    0.8217   -0.1206 C   0  0  0  0  0  0  0  0  0  0  0  0
    5.5512   -0.4196   -0.3425 N   0  0  0  0  0  0  0  0  0  0  0  0
    4.6482   -1.4626   -0.7906 C   0  0  0  0  0  0  0  0  0  0  0  0
    5.1870   -2.9026   -0.4875 C   0  0  0  0  0  0  0  0  0  0  0  0
    6.6062   -3.0198   -0.7335 N   0  0  0  0  0  0  0  0  0  0  0  0
    7.3062   -4.0931   -0.8657 C   0  0  0  0  0  0  0  0  0  0  0  0
    8.8359   -4.1194   -0.9145 C   0  0  0  0  0  0  0  0  0  0  0  0
    9.6561   -2.9640   -0.7507 C   0  0  0  0  0  0  0  0  0  0  0  0
   11.0661   -3.0817   -0.8225 C   0  0  0  0  0  0  0  0  0  0  0  0
   11.6658   -4.3132   -1.0523 C   0  0  0  0  0  0  0  0  0  0  0  0
   10.8742   -5.4505   -1.2046 C   0  0  0  0  0  0  0  0  0  0  0  0
    9.4732   -5.3499   -1.1318 C   0  0  0  0  0  0  0  0  0  0  0  0
    9.1229   -1.7713   -0.5280 O   0  5  0  0  0  0  0  0  0  0  0  0
    6.7972   -5.0496   -0.9571 H   0  0  0  0  0  0  0  0  0  0  0  0
    4.1817    1.1393   -0.1745 H   0  0  0  0  0  0  0  0  0  0  0  0
    4.7347    3.4610    0.3387 H   0  0  0  0  0  0  0  0  0  0  0  0
    6.3068    5.3195    0.7334 H   0  0  0  0  0  0  0  0  0  0  0  0
    8.7443    4.9219    0.7481 H   0  0  0  0  0  0  0  0  0  0  0  0
    8.1780    0.5202   -0.0726 O   0  5  0  0  0  0  0  0  0  0  0  0
    8.8883   -6.2504   -1.2550 H   0  0  0  0  0  0  0  0  0  0  0  0
   11.3438   -6.4084   -1.3824 H   0  0  0  0  0  0  0  0  0  0  0  0
   12.7491   -4.3951   -1.1138 H   0  0  0  0  0  0  0  0  0  0  0  0
   11.6952   -2.2023   -0.7009 H   0  0  0  0  0  0  0  0  0  0  0  0
    9.6247    2.6495    0.3640 H   0  0  0  0  0  0  0  0  0  0  0  0
    4.5343   -1.3715   -1.8772 H   0  0  0  0  0  0  0  0  0  0  0  0
    3.6539   -1.3500   -0.3437 H   0  0  0  0  0  0  0  0  0  0  0  0
    5.0013   -3.1126    0.5723 H   0  0  0  0  0  0  0  0  0  0  0  0
    4.6175   -3.6316   -1.0746 H   0  0  0  0  0  0  0  0  0  0  0  0
  1  2  2  0  0  0  0
  1  6  1  0  0  0  0
  1 30  1  0  0  0  0
  2  3  1  0  0  0  0
  2 24  1  0  0  0  0
  3  4  2  0  0  0  0
  3 23  1  0  0  0  0
  4  5  1  0  0  0  0
  4 22  1  0  0  0  0
  5  6  2  0  0  0  0
  5  7  1  0  0  0  0
  6 25  1  0  0  0  0
  7  8  2  0  0  0  0
  7 21  1  0  0  0  0
  8  9  1  0  0  0  0
  9 10  1  0  0  0  0
  9 32  1  0  0  0  0
 10 11  1  0  0  0  0
 10 33  1  0  0  0  0
 10 34  1  0  0  0  0
 11 12  2  0  0  0  0
 12 13  1  0  0  0  0
 12 20  1  0  0  0  0
 13 14  2  0  0  0  0
 13 18  1  0  0  0  0
 14 15  1  0  0  0  0
 14 19  1  0  0  0  0
 15 16  2  0  0  0  0
 15 29  1  0  0  0  0
 16 17  1  0  0  0  0
 16 28  1  0  0  0  0
 17 18  2  0  0  0  0
 17 27  1  0  0  0  0
 18 26  1  0  0  0  0
 31  9  1  0  0  0  0
M  CHG  2  19  -1  25  -1
M  END
