
 OpenBabel07061715473D

 28 29  0  0  0  0  0  0  0  0999 V2000
    3.2537    8.6024   17.7596 N   0  0  0  0  0  0  0  0  0  0  0  0
    0.5730    9.0240   17.6235 N   0  0  0  0  0  0  0  0  0  0  0  0
    4.6024    8.4831   17.7672 C   0  0  0  0  0  0  0  0  0  0  0  0
    5.2144    9.2893   17.3855 H   0  0  0  0  0  0  0  0  0  0  0  0
    5.2044    7.3282   18.2632 C   0  0  0  0  0  0  0  0  0  0  0  0
    6.2829    7.2396   18.2657 H   0  0  0  0  0  0  0  0  0  0  0  0
    4.4011    6.2976   18.7533 C   0  0  0  0  0  0  0  0  0  0  0  0
    3.0110    6.4392   18.7370 C   0  0  0  0  0  0  0  0  0  0  0  0
    2.4089    5.6305   19.1185 H   0  0  0  0  0  0  0  0  0  0  0  0
    0.0356    6.9333   18.6510 C   0  0  0  0  0  0  0  0  0  0  0  0
    0.3197    5.9937   19.0963 H   0  0  0  0  0  0  0  0  0  0  0  0
   -1.3226    7.2413   18.5566 C   0  0  0  0  0  0  0  0  0  0  0  0
   -1.7138    8.4514   17.9844 C   0  0  0  0  0  0  0  0  0  0  0  0
   -2.7608    8.7116   17.9001 H   0  0  0  0  0  0  0  0  0  0  0  0
   -0.7380    9.3329   17.5190 C   0  0  0  0  0  0  0  0  0  0  0  0
   -1.0332   10.2744   17.0756 H   0  0  0  0  0  0  0  0  0  0  0  0
    2.4377    7.6233   18.2242 C   0  0  0  0  0  0  0  0  0  0  0  0
    0.9903    7.8545   18.1695 C   0  0  0  0  0  0  0  0  0  0  0  0
   -2.5441    6.0825   19.1754 S   0  3  0  0  0  0  0  0  0  0  0  0
    5.1359    4.7946   19.4010 S   0  3  0  0  0  0  0  0  0  0  0  0
    4.8554    4.6063   20.8999 O   0  0  0  0  0  0  0  0  0  0  0  0
    4.7654    3.2909   18.6583 O   0  0  0  0  0  0  0  0  0  0  0  0
    3.8589    3.0618   18.9854 H   0  0  0  0  0  0  0  0  0  0  0  0
    6.6707    4.8633   19.4011 O   0  0  0  0  0  0  0  0  0  0  0  0
   -2.5349    4.7527   18.4060 O   0  0  0  0  0  0  0  0  0  0  0  0
   -3.9772    6.5650   18.9041 O   0  0  0  0  0  0  0  0  0  0  0  0
   -2.5319    5.6657   20.8416 O   0  0  0  0  0  0  0  0  0  0  0  0
   -1.7631    5.0494   20.9438 H   0  0  0  0  0  0  0  0  0  0  0  0
  1 17  1  0  0  0  0
  2 15  2  0  0  0  0
  2 18  1  0  0  0  0
  3  1  2  0  0  0  0
  3  5  1  0  0  0  0
  4  3  1  0  0  0  0
  5  7  2  0  0  0  0
  6  5  1  0  0  0  0
  7  8  1  0  0  0  0
  7 20  1  0  0  0  0
  8  9  1  0  0  0  0
 10 12  1  0  0  0  0
 10 11  1  0  0  0  0
 12 19  1  0  0  0  0
 13 14  1  0  0  0  0
 13 12  2  0  0  0  0
 15 13  1  0  0  0  0
 16 15  1  0  0  0  0
 17 18  1  0  0  0  0
 17  8  2  0  0  0  0
 18 10  2  0  0  0  0
 19 26  2  0  0  0  0
 19 27  1  0  0  0  0
 20 22  1  0  0  0  0
 20 24  2  0  0  0  0
 21 20  2  0  0  0  0
 22 23  1  0  0  0  0
 25 19  2  0  0  0  0
 27 28  1  0  0  0  0
M  CHG  2  19   1  20   1
M  END
