
 OpenBabel11091621403D

 80 80  0  0  1  0  0  0  0  0999 V2000
   -1.7864    0.0159   -0.0493 N   0  3  2  0  0  0  0  0  0  0  0  0
   -1.8874   -1.4855   -0.1796 C   0  0  0  0  0  0  0  0  0  0  0  0
   -0.8574   -1.9826   -1.0700 C   0  0  0  0  0  0  0  0  0  0  0  0
    0.2690   -1.4531   -0.3438 N   0  3  2  0  0  0  0  0  0  0  0  0
    1.5319   -1.6759   -1.0123 C   0  0  0  0  0  0  0  0  0  0  0  0
    2.4133   -0.7228   -0.2892 C   0  0  0  0  0  0  0  0  0  0  0  0
    1.7623    0.6015   -0.4769 N   0  3  1  0  0  0  0  0  0  0  0  0
    2.0834    1.6818    0.5247 C   0  0  0  0  0  0  0  0  0  0  0  0
    0.9567    2.6425    0.3532 C   0  0  0  0  0  0  0  0  0  0  0  0
   -0.3015    1.9734   -0.1430 N   0  3  1  0  0  0  0  0  0  0  0  0
   -1.3367    2.1501    0.9788 C   0  0  0  0  0  0  0  0  0  0  0  0
   -2.0858    0.8586    1.1940 C   0  0  0  0  0  0  0  0  0  0  0  0
   -2.6797   -2.0296   -0.7014 H   0  0  0  0  0  0  0  0  0  0  0  0
   -2.0017   -1.8773    0.7771 H   0  0  0  0  0  0  0  0  0  0  0  0
   -1.0497   -1.6732   -2.1116 H   0  0  0  0  0  0  0  0  0  0  0  0
   -0.8535   -3.0370   -1.3563 H   0  0  0  0  0  0  0  0  0  0  0  0
    1.4936   -1.5681   -2.0935 H   0  0  0  0  0  0  0  0  0  0  0  0
    1.9501   -2.6940   -1.0228 H   0  0  0  0  0  0  0  0  0  0  0  0
    3.3488   -1.0464   -0.7411 H   0  0  0  0  0  0  0  0  0  0  0  0
    2.7797   -0.8110    0.7327 H   0  0  0  0  0  0  0  0  0  0  0  0
    2.9882    2.2947    0.4942 H   0  0  0  0  0  0  0  0  0  0  0  0
    2.2620    1.3393    1.5595 H   0  0  0  0  0  0  0  0  0  0  0  0
    1.3288    3.2918   -0.4226 H   0  0  0  0  0  0  0  0  0  0  0  0
    0.8580    3.3518    1.2045 H   0  0  0  0  0  0  0  0  0  0  0  0
   -2.0927    2.9182    0.8387 H   0  0  0  0  0  0  0  0  0  0  0  0
   -0.9593    2.5273    1.9545 H   0  0  0  0  0  0  0  0  0  0  0  0
   -3.0342    1.1069    1.6912 H   0  0  0  0  0  0  0  0  0  0  0  0
   -1.9541    0.3702    2.1754 H   0  0  0  0  0  0  0  0  0  0  0  0
    2.8977    1.0777   -1.6078 C   0  0  0  0  0  0  0  0  0  0  0  0
    0.4633   -2.6757    0.8715 C   0  0  0  0  0  0  0  0  0  0  0  0
   -3.4480    0.1234   -0.3994 C   0  0  0  0  0  0  0  0  0  0  0  0
   -0.8631    3.1055   -1.2404 C   0  0  0  0  0  0  0  0  0  0  0  0
   -0.1733    3.3825   -2.6411 C   0  0  0  0  0  0  0  0  0  0  0  0
   -2.3272    2.9824   -1.6960 C   0  0  0  0  0  0  0  0  0  0  0  0
   -2.9944    3.3810   -0.9257 H   0  0  0  0  0  0  0  0  0  0  0  0
   -2.5720    2.0219   -2.1408 H   0  0  0  0  0  0  0  0  0  0  0  0
   -2.6291    3.6932   -2.4965 H   0  0  0  0  0  0  0  0  0  0  0  0
   -0.8288    4.6010   -0.6576 C   0  0  0  0  0  0  0  0  0  0  0  0
    0.1875    5.0205   -0.5248 H   0  0  0  0  0  0  0  0  0  0  0  0
   -1.3583    4.7633    0.2949 H   0  0  0  0  0  0  0  0  0  0  0  0
   -1.3059    5.3210   -1.3644 H   0  0  0  0  0  0  0  0  0  0  0  0
   -3.9938   -0.3744   -1.8143 C   0  0  0  0  0  0  0  0  0  0  0  0
   -3.5644    0.1636   -2.6720 H   0  0  0  0  0  0  0  0  0  0  0  0
   -5.0997   -0.1940   -1.8679 H   0  0  0  0  0  0  0  0  0  0  0  0
   -4.0064   -1.4559   -2.0424 H   0  0  0  0  0  0  0  0  0  0  0  0
   -4.3306   -0.7904    0.6644 C   0  0  0  0  0  0  0  0  0  0  0  0
   -4.2347   -1.8910    0.5895 H   0  0  0  0  0  0  0  0  0  0  0  0
   -5.4288   -0.6938    0.5527 H   0  0  0  0  0  0  0  0  0  0  0  0
   -4.1318   -0.6110    1.7405 H   0  0  0  0  0  0  0  0  0  0  0  0
   -4.3171    1.4967   -0.2841 C   0  0  0  0  0  0  0  0  0  0  0  0
   -4.4986    2.0140   -1.2396 H   0  0  0  0  0  0  0  0  0  0  0  0
   -4.1790    2.2334    0.5293 H   0  0  0  0  0  0  0  0  0  0  0  0
   -5.3954    1.2830   -0.1201 H   0  0  0  0  0  0  0  0  0  0  0  0
    0.2979   -4.1635    0.2894 C   0  0  0  0  0  0  0  0  0  0  0  0
   -0.7632   -4.4327    0.0920 H   0  0  0  0  0  0  0  0  0  0  0  0
    0.5817   -4.9562    1.0151 H   0  0  0  0  0  0  0  0  0  0  0  0
    0.8965   -4.4009   -0.6098 H   0  0  0  0  0  0  0  0  0  0  0  0
   -0.4533   -2.8601    2.2058 C   0  0  0  0  0  0  0  0  0  0  0  0
   -0.3164   -2.1281    3.0259 H   0  0  0  0  0  0  0  0  0  0  0  0
   -0.1523   -3.7742    2.7623 H   0  0  0  0  0  0  0  0  0  0  0  0
   -1.5196   -3.1435    2.1316 H   0  0  0  0  0  0  0  0  0  0  0  0
    1.8914   -2.8295    1.5803 C   0  0  0  0  0  0  0  0  0  0  0  0
    2.7460   -3.0243    0.9054 H   0  0  0  0  0  0  0  0  0  0  0  0
    1.9418   -3.7266    2.2364 H   0  0  0  0  0  0  0  0  0  0  0  0
    2.1479   -2.0481    2.3171 H   0  0  0  0  0  0  0  0  0  0  0  0
    2.9086    2.5371   -2.1687 C   0  0  0  0  0  0  0  0  0  0  0  0
    2.1748    2.6392   -2.9564 H   0  0  0  0  0  0  0  0  0  0  0  0
    3.8154    2.7298   -2.7880 H   0  0  0  0  0  0  0  0  0  0  0  0
    3.0447    3.3656   -1.4468 H   0  0  0  0  0  0  0  0  0  0  0  0
    4.4561    1.0357   -1.0557 C   0  0  0  0  0  0  0  0  0  0  0  0
    4.9281    0.0817   -0.7566 H   0  0  0  0  0  0  0  0  0  0  0  0
    4.7273    1.6911   -0.2088 H   0  0  0  0  0  0  0  0  0  0  0  0
    5.1778    1.3530   -1.8379 H   0  0  0  0  0  0  0  0  0  0  0  0
    2.9839    0.2433   -2.9473 C   0  0  0  0  0  0  0  0  0  0  0  0
    2.0739    0.3174   -3.5649 H   0  0  0  0  0  0  0  0  0  0  0  0
    3.3034   -0.8077   -2.8433 H   0  0  0  0  0  0  0  0  0  0  0  0
    3.7942    0.6405   -3.6020 H   0  0  0  0  0  0  0  0  0  0  0  0
   -0.2149    2.5947   -3.4248 H   0  0  0  0  0  0  0  0  0  0  0  0
    0.7698    3.9196   -2.5236 H   0  0  0  0  0  0  0  0  0  0  0  0
   -0.7023    4.1753   -3.2186 H   0  0  0  0  0  0  0  0  0  0  0  0
  1  2  1  0  0  0  0
  1 12  1  0  0  0  0
  1 31  1  6  0  0  0
  2  3  1  0  0  0  0
  2 13  1  0  0  0  0
  2 14  1  0  0  0  0
  3  4  1  0  0  0  0
  3 15  1  0  0  0  0
  3 16  1  0  0  0  0
  4  5  1  0  0  0  0
  4 30  1  1  0  0  0
  5  6  1  0  0  0  0
  5 17  1  0  0  0  0
  5 18  1  0  0  0  0
  6  7  1  0  0  0  0
  6 19  1  0  0  0  0
  6 20  1  0  0  0  0
  7  8  1  0  0  0  0
  7 29  1  6  0  0  0
  8  9  1  0  0  0  0
  8 21  1  0  0  0  0
  8 22  1  0  0  0  0
  9 10  1  0  0  0  0
  9 23  1  0  0  0  0
  9 24  1  0  0  0  0
 10 11  1  0  0  0  0
 10 32  1  6  0  0  0
 11 12  1  0  0  0  0
 11 25  1  0  0  0  0
 11 26  1  0  0  0  0
 12 27  1  0  0  0  0
 12 28  1  0  0  0  0
 29 66  1  0  0  0  0
 29 70  1  0  0  0  0
 29 74  1  0  0  0  0
 30 54  1  0  0  0  0
 30 58  1  0  0  0  0
 30 62  1  0  0  0  0
 31 42  1  0  0  0  0
 31 46  1  0  0  0  0
 31 50  1  0  0  0  0
 32 33  1  0  0  0  0
 32 34  1  0  0  0  0
 32 38  1  0  0  0  0
 33 78  1  0  0  0  0
 33 79  1  0  0  0  0
 33 80  1  0  0  0  0
 34 35  1  0  0  0  0
 34 36  1  0  0  0  0
 34 37  1  0  0  0  0
 38 39  1  0  0  0  0
 38 40  1  0  0  0  0
 38 41  1  0  0  0  0
 42 43  1  0  0  0  0
 42 44  1  0  0  0  0
 42 45  1  0  0  0  0
 46 47  1  0  0  0  0
 46 48  1  0  0  0  0
 46 49  1  0  0  0  0
 50 51  1  0  0  0  0
 50 52  1  0  0  0  0
 50 53  1  0  0  0  0
 54 55  1  0  0  0  0
 54 56  1  0  0  0  0
 54 57  1  0  0  0  0
 58 59  1  0  0  0  0
 58 60  1  0  0  0  0
 58 61  1  0  0  0  0
 62 63  1  0  0  0  0
 62 64  1  0  0  0  0
 62 65  1  0  0  0  0
 66 67  1  0  0  0  0
 66 68  1  0  0  0  0
 66 69  1  0  0  0  0
 70 71  1  0  0  0  0
 70 72  1  0  0  0  0
 70 73  1  0  0  0  0
 74 75  1  0  0  0  0
 74 76  1  0  0  0  0
 74 77  1  0  0  0  0
M  CHG  1   1   0
M  END
