
 OpenBabel11011616023D

 20 19  0  0  0  0  0  0  0  0999 V2000
   -0.0235   -0.8322    0.0006 C   0  0  0  0  0  0  0  0  0  0  0  0
    1.4019   -1.4041    0.3709 C   0  0  0  0  0  0  0  0  0  0  0  0
   -1.2993   -1.6943    0.3240 C   0  0  0  0  0  0  0  0  0  0  0  0
    2.4553   -0.4635   -0.0745 C   0  0  0  0  0  0  0  0  0  0  0  0
    1.7183   -2.7338   -0.1772 C   0  0  0  0  0  0  0  0  0  0  0  0
   -1.3152   -3.0630   -0.2137 C   0  0  0  0  0  0  0  0  0  0  0  0
   -2.5316   -1.0246   -0.1533 C   0  0  0  0  0  0  0  0  0  0  0  0
   -0.1625    0.3728    0.7517 O   0  0  0  0  0  0  0  0  0  0  0  0
   -0.6352    1.4368   -0.0511 C   0  0  0  0  0  0  0  0  0  0  0  0
    0.2747    2.6561    0.0913 C   0  0  0  0  0  0  0  0  0  0  0  0
   -1.6408    1.7163    0.3299 H   0  0  0  0  0  0  0  0  0  0  0  0
   -0.7421    1.1873   -1.1336 H   0  0  0  0  0  0  0  0  0  0  0  0
   -3.5040   -0.5107   -0.5213 N   0  0  0  0  0  0  0  0  0  0  0  0
   -1.3778   -4.1487   -0.6124 N   0  0  0  0  0  0  0  0  0  0  0  0
    2.0085   -3.7777   -0.5877 N   0  0  0  0  0  0  0  0  0  0  0  0
    3.2842    0.2695   -0.4210 N   0  0  0  0  0  0  0  0  0  0  0  0
    1.5101    2.4060   -0.5161 O   0  0  0  0  0  0  0  0  0  0  0  0
    0.4220    2.8910    1.1690 H   0  0  0  0  0  0  0  0  0  0  0  0
   -0.2159    3.5176   -0.4141 H   0  0  0  0  0  0  0  0  0  0  0  0
    1.9800    3.2783   -0.5672 H   0  0  0  0  0  0  0  0  0  0  0  0
  1  2  1  0  0  0  0
  1  3  1  0  0  0  0
  1  8  1  0  0  0  0
  2  4  1  0  0  0  0
  2  5  1  0  0  0  0
  3  6  1  0  0  0  0
  3  7  1  0  0  0  0
  8  9  1  0  0  0  0
  9 10  1  0  0  0  0
  9 11  1  0  0  0  0
  9 12  1  0  0  0  0
 10 17  1  0  0  0  0
 10 18  1  0  0  0  0
 10 19  1  0  0  0  0
 13  7  3  0  0  0  0
 14  6  3  0  0  0  0
 15  5  3  0  0  0  0
 16  4  3  0  0  0  0
 17 20  1  0  0  0  0
M  CHG  1   1  -1
M  END
