
 OpenBabel11101622563D

 19 18  0  0  0  0  0  0  0  0999 V2000
    1.7368   -3.2383   -0.3633 C   0  5  0  0  0  0  0  0  0  0  0  0
    3.0968   -4.2801   -0.0776 C   0  5  0  0  0  0  0  0  0  0  0  0
    0.0914   -3.1684    0.0898 C   0  5  0  0  0  0  0  0  0  0  0  0
    3.9021   -3.6187    0.9599 C   0  0  0  0  0  0  0  0  0  0  0  0
    3.4922   -5.8862   -0.4648 C   0  0  0  0  0  0  0  0  0  0  0  0
   -1.1247   -3.9992    0.3831 C   0  0  0  0  0  0  0  0  0  0  0  0
   -0.6937   -2.2736   -0.7314 C   0  0  0  0  0  0  0  0  0  0  0  0
    2.2653   -1.9856    0.0740 O   0  0  0  0  0  0  0  0  0  0  0  0
    1.6151   -0.8376   -0.3809 C   0  0  0  0  0  0  0  0  0  0  0  0
    2.5119    0.3632   -0.2399 C   0  0  0  0  0  0  0  0  0  0  0  0
    0.7563   -0.6218    0.2972 H   0  0  0  0  0  0  0  0  0  0  0  0
    1.3418   -0.9451   -1.4507 H   0  0  0  0  0  0  0  0  0  0  0  0
   -1.3237   -1.5231   -1.3391 N   0  0  0  0  0  0  0  0  0  0  0  0
   -2.0349   -4.7218    0.4392 N   0  0  0  0  0  0  0  0  0  0  0  0
    3.8228   -7.0152   -0.8184 N   0  3  0  0  0  0  0  0  0  0  0  0
    4.5806   -3.0396    1.6956 N   0  0  0  0  0  0  0  0  0  0  0  0
    2.7969    0.5160    0.8244 H   0  0  0  0  0  0  0  0  0  0  0  0
    1.9348    1.2448   -0.5851 H   0  0  0  0  0  0  0  0  0  0  0  0
    3.4176    0.2366   -0.8636 H   0  0  0  0  0  0  0  0  0  0  0  0
  1  2  1  0  0  0  0
  1  3  1  0  0  0  0
  1  8  1  0  0  0  0
  2  4  1  0  0  0  0
  2  5  1  0  0  0  0
  3  6  1  0  0  0  0
  3  7  1  0  0  0  0
  8  9  1  0  0  0  0
  9 10  1  0  0  0  0
  9 11  1  0  0  0  0
  9 12  1  0  0  0  0
 10 17  1  0  0  0  0
 10 18  1  0  0  0  0
 10 19  1  0  0  0  0
 13  7  3  0  0  0  0
 14  6  3  0  0  0  0
 15  5  3  0  0  0  0
 16  4  3  0  0  0  0
M  CHG  4   1  -1   2  -1   3  -1  15   1
M  END
