
 OpenBabel11151712243D

  9  9  0  0  0  0  0  0  0  0999 V2000
    1.2531    4.3722    1.0213 S   0  0  0  0  0  0  0  0  0  0  0  0
    1.5603    4.2862    2.7029 C   0  0  0  0  0  0  0  0  0  0  0  0
    2.2715    3.1560    3.0424 C   0  0  0  0  0  0  0  0  0  0  0  0
    2.5679    2.3497    1.9053 C   0  0  0  0  0  0  0  0  0  0  0  0
    2.0717    2.8953    0.7416 C   0  0  0  0  0  0  0  0  0  0  0  0
    1.2047    5.0680    3.3598 H   0  0  0  0  0  0  0  0  0  0  0  0
    2.5646    2.9197    4.0579 H   0  0  0  0  0  0  0  0  0  0  0  0
    2.1490    2.4997   -0.2618 H   0  0  0  0  0  0  0  0  0  0  0  0
    3.1172    1.4168    1.9386 H   0  0  0  0  0  0  0  0  0  0  0  0
  1  2  1  0  0  0  0
  2  3  2  0  0  0  0
  2  6  1  0  0  0  0
  3  7  1  0  0  0  0
  4  3  1  0  0  0  0
  4  9  1  0  0  0  0
  5  1  1  0  0  0  0
  5  4  2  0  0  0  0
  5  8  1  0  0  0  0
M  END
