
 OpenBabel11161611553D

 32 33  0  0  0  0  0  0  0  0999 V2000
    3.2537    8.6024   17.7596 N   0  0  0  0  0  0  0  0  0  0  0  0
    0.5730    9.0240   17.6235 N   0  0  0  0  0  0  0  0  0  0  0  0
    4.6024    8.4831   17.7672 C   0  0  0  0  0  0  0  0  0  0  0  0
    5.2114    9.2866   17.3887 H   0  0  0  0  0  0  0  0  0  0  0  0
    5.2062    7.3304   18.2647 C   0  0  0  0  0  0  0  0  0  0  0  0
    6.2861    7.2496   18.2652 H   0  0  0  0  0  0  0  0  0  0  0  0
    4.4084    6.2936   18.7612 C   0  0  0  0  0  0  0  0  0  0  0  0
    3.0124    6.4385   18.7373 C   0  0  0  0  0  0  0  0  0  0  0  0
    2.4051    5.6311   19.1096 H   0  0  0  0  0  0  0  0  0  0  0  0
    0.0417    6.9243   18.6395 C   0  0  0  0  0  0  0  0  0  0  0  0
    0.3322    5.9878   19.0845 H   0  0  0  0  0  0  0  0  0  0  0  0
   -1.3257    7.2243   18.5374 C   0  0  0  0  0  0  0  0  0  0  0  0
   -1.7121    8.4456   17.9733 C   0  0  0  0  0  0  0  0  0  0  0  0
   -2.7586    8.7090   17.8833 H   0  0  0  0  0  0  0  0  0  0  0  0
   -0.7380    9.3329   17.5190 C   0  0  0  0  0  0  0  0  0  0  0  0
   -1.0323   10.2771   17.0808 H   0  0  0  0  0  0  0  0  0  0  0  0
    2.4377    7.6233   18.2242 C   0  0  0  0  0  0  0  0  0  0  0  0
    0.9984    7.8501   18.1680 C   0  0  0  0  0  0  0  0  0  0  0  0
   -2.3702    6.2540   19.0394 C   0  0  0  0  0  0  0  0  0  0  0  0
    5.0467    5.0343   19.3008 C   0  0  0  0  0  0  0  0  0  0  0  0
    4.7606    4.8404   20.7708 C   0  0  0  0  0  0  0  0  0  0  0  0
    4.6747    4.1573   18.7293 H   0  0  0  0  0  0  0  0  0  0  0  0
    6.1479    5.0804   19.1570 H   0  0  0  0  0  0  0  0  0  0  0  0
   -2.3521    4.9547   18.2701 C   0  0  0  0  0  0  0  0  0  0  0  0
   -3.3804    6.7080   18.9448 H   0  0  0  0  0  0  0  0  0  0  0  0
   -2.1982    6.0514   20.1181 H   0  0  0  0  0  0  0  0  0  0  0  0
   -1.3575    4.2470   18.2856 O   0  0  0  0  0  0  0  0  0  0  0  0
   -3.4375    4.5523   17.5741 O   0  0  0  0  0  0  0  0  0  0  0  0
   -4.2455    5.0831   17.5413 H   0  0  0  0  0  0  0  0  0  0  0  0
    3.6118    4.6976   21.1582 O   0  0  0  0  0  0  0  0  0  0  0  0
    5.7691    4.8042   21.6688 O   0  0  0  0  0  0  0  0  0  0  0  0
    6.6924    4.9093   21.4004 H   0  0  0  0  0  0  0  0  0  0  0  0
  1 17  1  0  0  0  0
  2 15  2  0  0  0  0
  2 18  1  0  0  0  0
  3  1  2  0  0  0  0
  3  5  1  0  0  0  0
  4  3  1  0  0  0  0
  5  7  2  0  0  0  0
  6  5  1  0  0  0  0
  7  8  1  0  0  0  0
  7 20  1  0  0  0  0
  8  9  1  0  0  0  0
 10 12  1  0  0  0  0
 10 11  1  0  0  0  0
 12 19  1  0  0  0  0
 13 14  1  0  0  0  0
 13 12  2  0  0  0  0
 15 13  1  0  0  0  0
 16 15  1  0  0  0  0
 17 18  1  0  0  0  0
 17  8  2  0  0  0  0
 18 10  2  0  0  0  0
 19 25  1  0  0  0  0
 19 26  1  0  0  0  0
 20 22  1  0  0  0  0
 20 23  1  0  0  0  0
 21 20  1  0  0  0  0
 24 19  1  0  0  0  0
 27 24  2  0  0  0  0
 28 24  1  0  0  0  0
 28 29  1  0  0  0  0
 30 21  2  0  0  0  0
 31 21  1  0  0  0  0
 31 32  1  0  0  0  0
M  END
