
 OpenBabel03301714373D

 26 27  0  0  0  0  0  0  0  0999 V2000
    0.3287   -4.7407    1.4590 C   0  0  0  0  0  0  0  0  0  0  0  0
    1.4132   -5.5745    0.8413 C   0  0  0  0  0  0  0  0  0  0  0  0
    2.7529   -5.3000    0.8761 C   0  0  0  0  0  0  0  0  0  0  0  0
    3.4047   -6.2758    0.1013 C   0  0  0  0  0  0  0  0  0  0  0  0
    4.6381   -6.3789   -0.2192 O   0  0  0  0  0  0  0  0  0  0  0  0
    2.3810   -7.1447   -0.3174 N   0  0  0  0  0  0  0  0  0  0  0  0
    1.2108   -6.6829    0.1286 N   0  0  0  0  0  0  0  0  0  0  0  0
   -0.1328   -7.2257   -0.1511 C   0  0  0  0  0  0  0  0  0  0  0  0
    2.3805   -8.3196   -1.1542 C   0  0  0  0  0  0  0  0  0  0  0  0
    2.6443   -8.2555   -2.5293 C   0  0  0  0  0  0  0  0  0  0  0  0
    2.5308   -9.4011   -3.3271 C   0  0  0  0  0  0  0  0  0  0  0  0
    2.1316  -10.6148   -2.7617 C   0  0  0  0  0  0  0  0  0  0  0  0
    1.8352  -10.6841   -1.3996 C   0  0  0  0  0  0  0  0  0  0  0  0
    1.9503   -9.5435   -0.6028 C   0  0  0  0  0  0  0  0  0  0  0  0
    0.7531   -3.8523    1.9709 H   0  0  0  0  0  0  0  0  0  0  0  0
   -0.2476   -5.3439    2.1889 H   0  0  0  0  0  0  0  0  0  0  0  0
   -0.3567   -4.3830    0.6599 H   0  0  0  0  0  0  0  0  0  0  0  0
    3.0444   -4.4516    1.4160 H   0  0  0  0  0  0  0  0  0  0  0  0
   -0.1266   -8.1107   -0.8124 H   0  0  0  0  0  0  0  0  0  0  0  0
   -0.7416   -6.4568   -0.6729 H   0  0  0  0  0  0  0  0  0  0  0  0
   -0.6348   -7.5019    0.7988 H   0  0  0  0  0  0  0  0  0  0  0  0
    2.8996   -7.3226   -2.9982 H   0  0  0  0  0  0  0  0  0  0  0  0
    2.7340   -9.3447   -4.3885 H   0  0  0  0  0  0  0  0  0  0  0  0
    2.0362  -11.4982   -3.3801 H   0  0  0  0  0  0  0  0  0  0  0  0
    1.5098  -11.6185   -0.9605 H   0  0  0  0  0  0  0  0  0  0  0  0
    1.7029   -9.6049    0.4497 H   0  0  0  0  0  0  0  0  0  0  0  0
  1  2  1  0  0  0  0
  1 15  1  0  0  0  0
  1 16  1  0  0  0  0
  1 17  1  0  0  0  0
  2  3  2  0  0  0  0
  2  7  1  0  0  0  0
  3  4  1  0  0  0  0
  3 18  1  0  0  0  0
  4  5  2  0  0  0  0
  4  6  1  0  0  0  0
  6  7  1  0  0  0  0
  6  9  1  0  0  0  0
  7  8  1  0  0  0  0
  8 19  1  0  0  0  0
  8 20  1  0  0  0  0
  8 21  1  0  0  0  0
  9 10  2  0  0  0  0
  9 14  1  0  0  0  0
 10 11  1  0  0  0  0
 10 22  1  0  0  0  0
 11 12  2  0  0  0  0
 11 23  1  0  0  0  0
 12 13  1  0  0  0  0
 12 24  1  0  0  0  0
 13 14  2  0  0  0  0
 13 25  1  0  0  0  0
 14 26  1  0  0  0  0
M  END
