
 OpenBabel03301718183D

 16 16  0  0  0  0  0  0  0  0999 V2000
    0.1234    1.5946    0.9463 C   0  5  0  0  0  0  0  0  0  0  0  0
    0.7837    0.6955    0.6333 N   0  3  0  0  0  0  0  0  0  0  0  0
    3.0485   -0.1176    0.1518 C   0  0  0  0  0  0  0  0  0  0  0  0
    3.5894    1.1873    0.1108 C   0  0  0  0  0  0  0  0  0  0  0  0
    4.9746    1.3692   -0.0412 C   0  0  0  0  0  0  0  0  0  0  0  0
    5.8241    0.2614   -0.1352 C   0  0  0  0  0  0  0  0  0  0  0  0
    5.2946   -1.0285   -0.0847 C   0  0  0  0  0  0  0  0  0  0  0  0
    3.9184   -1.2142    0.0479 C   0  0  0  0  0  0  0  0  0  0  0  0
    2.9533    2.0612    0.1808 H   0  0  0  0  0  0  0  0  0  0  0  0
    5.3966    2.3667   -0.0857 H   0  0  0  0  0  0  0  0  0  0  0  0
    5.9470   -1.8901   -0.1481 H   0  0  0  0  0  0  0  0  0  0  0  0
    3.5231   -2.2216    0.0859 H   0  0  0  0  0  0  0  0  0  0  0  0
    6.8932    0.3978   -0.2466 H   0  0  0  0  0  0  0  0  0  0  0  0
    1.5744   -0.4281    0.3016 C   0  0  0  0  0  0  0  0  0  0  0  0
    1.4526   -1.1795    1.1113 H   0  0  0  0  0  0  0  0  0  0  0  0
    1.2080   -0.8829   -0.6450 H   0  0  0  0  0  0  0  0  0  0  0  0
  1  2  3  0  0  0  0
  3  4  2  0  0  0  0
  3  8  1  0  0  0  0
  4  5  1  0  0  0  0
  4  9  1  0  0  0  0
  5  6  2  0  0  0  0
  5 10  1  0  0  0  0
  6  7  1  0  0  0  0
  7  8  2  0  0  0  0
  7 11  1  0  0  0  0
  8 12  1  0  0  0  0
 13  6  1  0  0  0  0
 14  3  1  0  0  0  0
 14  2  1  0  0  0  0
 14 15  1  0  0  0  0
 14 16  1  0  0  0  0
M  CHG  2   1  -1   2   1
M  END
