
 OpenBabel11161612163D

 12 12  0  0  0  0  0  0  0  0999 V2000
   -1.4376    2.7013   -0.0782 S   0  5  0  0  0  0  0  0  0  0  0  0
    0.1184    1.8190   -0.1361 C   0  0  0  0  0  0  0  0  0  0  0  0
    1.2765    2.4045    0.3905 C   0  0  0  0  0  0  0  0  0  0  0  0
    0.1797    0.5421   -0.7080 C   0  0  0  0  0  0  0  0  0  0  0  0
    2.4924    1.7141    0.3448 C   0  0  0  0  0  0  0  0  0  0  0  0
    2.5523    0.4389   -0.2266 C   0  0  0  0  0  0  0  0  0  0  0  0
    1.3963   -0.1468   -0.7528 C   0  0  0  0  0  0  0  0  0  0  0  0
   -0.7124    0.0845   -1.1166 H   0  0  0  0  0  0  0  0  0  0  0  0
    1.2352    3.3913    0.8338 H   0  0  0  0  0  0  0  0  0  0  0  0
    1.4432   -1.1336   -1.1949 H   0  0  0  0  0  0  0  0  0  0  0  0
    3.3872    2.1670    0.7519 H   0  0  0  0  0  0  0  0  0  0  0  0
    3.4933   -0.0946   -0.2616 H   0  0  0  0  0  0  0  0  0  0  0  0
  2  1  1  0  0  0  0
  2  3  1  0  0  0  0
  2  4  2  0  0  0  0
  3  5  2  0  0  0  0
  3  9  1  0  0  0  0
  4  8  1  0  0  0  0
  5  6  1  0  0  0  0
  5 11  1  0  0  0  0
  6  7  2  0  0  0  0
  6 12  1  0  0  0  0
  7  4  1  0  0  0  0
  7 10  1  0  0  0  0
M  CHG  1   1  -1
M  END
