
 OpenBabel10041823063D

 24 25  0  0  0  0  0  0  0  0999 V2000
    1.4316    7.5405   16.0470 N   0  0  0  0  0  0  0  0  0  0  0  0
   -0.8983    8.1722   17.2987 N   0  0  0  0  0  0  0  0  0  0  0  0
    2.6340    7.3148   15.2770 C   0  0  0  0  0  0  0  0  0  0  0  0
    3.8291    7.0649   16.1686 C   0  0  0  0  0  0  0  0  0  0  0  0
    3.6531    5.7326   16.8686 C   0  0  0  0  0  0  0  0  0  0  0  0
    2.1164    5.6452   17.8446 S   0  0  0  0  0  0  0  0  0  0  0  0
   -0.5540    6.3719   19.2817 S   0  0  0  0  0  0  0  0  0  0  0  0
   -2.0051    7.2743   19.9158 C   0  0  0  0  0  0  0  0  0  0  0  0
   -2.1099    8.6811   19.3628 C   0  0  0  0  0  0  0  0  0  0  0  0
   -2.1578    8.6149   17.8531 C   0  0  0  0  0  0  0  0  0  0  0  0
    1.1454    6.8833   17.1162 C   0  0  0  0  0  0  0  0  0  0  0  0
   -0.1821    7.2438   17.8298 C   0  0  0  0  0  0  0  0  0  0  0  0
    3.9511    7.8738   16.8996 H   0  0  0  0  0  0  0  0  0  0  0  0
    4.7413    7.0458   15.5595 H   0  0  0  0  0  0  0  0  0  0  0  0
    4.5099    5.5496   17.5264 H   0  0  0  0  0  0  0  0  0  0  0  0
    3.6507    4.9252   16.1255 H   0  0  0  0  0  0  0  0  0  0  0  0
    2.8205    8.2112   14.6755 H   0  0  0  0  0  0  0  0  0  0  0  0
    2.4781    6.4897   14.5725 H   0  0  0  0  0  0  0  0  0  0  0  0
   -1.2671    9.2954   19.7034 H   0  0  0  0  0  0  0  0  0  0  0  0
   -3.0239    9.1590   19.7365 H   0  0  0  0  0  0  0  0  0  0  0  0
   -2.9693    7.9658   17.5043 H   0  0  0  0  0  0  0  0  0  0  0  0
   -2.3642    9.6161   17.4596 H   0  0  0  0  0  0  0  0  0  0  0  0
   -1.9559    7.3144   21.0095 H   0  0  0  0  0  0  0  0  0  0  0  0
   -2.9133    6.7125   19.6635 H   0  0  0  0  0  0  0  0  0  0  0  0
  1 11  2  0  0  0  0
  2 10  1  0  0  0  0
  2 12  2  0  0  0  0
  3  1  1  0  0  0  0
  3  4  1  0  0  0  0
  3 17  1  0  0  0  0
  3 18  1  0  0  0  0
  4  5  1  0  0  0  0
  4 13  1  0  0  0  0
  4 14  1  0  0  0  0
  5  6  1  0  0  0  0
  5 15  1  0  0  0  0
  5 16  1  0  0  0  0
  7  8  1  0  0  0  0
  8 23  1  0  0  0  0
  8 24  1  0  0  0  0
  9  8  1  0  0  0  0
  9 19  1  0  0  0  0
  9 20  1  0  0  0  0
 10  9  1  0  0  0  0
 10 21  1  0  0  0  0
 10 22  1  0  0  0  0
 11 12  1  0  0  0  0
 11  6  1  0  0  0  0
 12  7  1  0  0  0  0
M  END
