
 OpenBabel10041823083D

 26 27  0  0  0  0  0  0  0  0999 V2000
    1.4093    7.5392   16.0490 N   0  0  0  0  0  0  0  0  0  0  0  0
   -0.8870    8.1627   17.2822 N   0  0  0  0  0  0  0  0  0  0  0  0
    2.6158    7.3169   15.2839 C   0  0  0  0  0  0  0  0  0  0  0  0
    3.7633    6.9906   16.2260 C   0  0  0  0  0  0  0  0  0  0  0  0
    3.3706    5.7580   17.0438 C   0  0  0  0  0  0  0  0  0  0  0  0
    2.0771    5.9624   17.6817 N   0  0  0  0  0  0  0  0  0  0  0  0
   -0.5377    6.6750   19.0884 N   0  0  0  0  0  0  0  0  0  0  0  0
   -1.7250    7.1462   19.7881 C   0  0  0  0  0  0  0  0  0  0  0  0
   -2.0637    8.5763   19.3598 C   0  0  0  0  0  0  0  0  0  0  0  0
   -2.1428    8.6080   17.8424 C   0  0  0  0  0  0  0  0  0  0  0  0
    1.1374    6.9128   17.1482 C   0  0  0  0  0  0  0  0  0  0  0  0
   -0.1405    7.2585   17.8376 C   0  0  0  0  0  0  0  0  0  0  0  0
    3.9134    7.8530   16.9155 H   0  0  0  0  0  0  0  0  0  0  0  0
    4.7057    6.8208   15.6643 H   0  0  0  0  0  0  0  0  0  0  0  0
    4.1572    5.5895   17.8102 H   0  0  0  0  0  0  0  0  0  0  0  0
    3.3167    4.8577   16.3933 H   0  0  0  0  0  0  0  0  0  0  0  0
    2.8453    8.2359   14.7060 H   0  0  0  0  0  0  0  0  0  0  0  0
    2.4553    6.4808   14.5692 H   0  0  0  0  0  0  0  0  0  0  0  0
   -1.2458    9.2584   19.6874 H   0  0  0  0  0  0  0  0  0  0  0  0
   -3.0145    8.9215   19.8173 H   0  0  0  0  0  0  0  0  0  0  0  0
   -2.9647    7.9497   17.4861 H   0  0  0  0  0  0  0  0  0  0  0  0
   -2.3418    9.6418   17.4913 H   0  0  0  0  0  0  0  0  0  0  0  0
   -1.5525    7.1485   20.8855 H   0  0  0  0  0  0  0  0  0  0  0  0
   -2.5725    6.4608   19.5678 H   0  0  0  0  0  0  0  0  0  0  0  0
    1.8187    5.3511   18.4665 H   0  0  0  0  0  0  0  0  0  0  0  0
   -0.0405    5.8580   19.4686 H   0  0  0  0  0  0  0  0  0  0  0  0
  1 11  2  0  0  0  0
  2 10  1  0  0  0  0
  2 12  2  0  0  0  0
  3  1  1  0  0  0  0
  3  4  1  0  0  0  0
  3 17  1  0  0  0  0
  3 18  1  0  0  0  0
  4  5  1  0  0  0  0
  4 13  1  0  0  0  0
  4 14  1  0  0  0  0
  5  6  1  0  0  0  0
  5 15  1  0  0  0  0
  5 16  1  0  0  0  0
  6 25  1  0  0  0  0
  7  8  1  0  0  0  0
  7 26  1  0  0  0  0
  8 23  1  0  0  0  0
  8 24  1  0  0  0  0
  9  8  1  0  0  0  0
  9 19  1  0  0  0  0
  9 20  1  0  0  0  0
 10  9  1  0  0  0  0
 10 21  1  0  0  0  0
 10 22  1  0  0  0  0
 11 12  1  0  0  0  0
 11  6  1  0  0  0  0
 12  7  1  0  0  0  0
M  END
