
 OpenBabel10041821173D

 20 21  0  0  1  0  0  0  0  0999 V2000
    2.5002   -5.6890   -1.1281 N   0  0  0  0  0  0  0  0  0  0  0  0
    3.3207   -6.4724   -2.0088 C   0  0  0  0  0  0  0  0  0  0  0  0
    2.5309   -6.3739   -3.3212 C   0  0  0  0  0  0  0  0  0  0  0  0
    1.3040   -5.4219   -1.7359 C   0  0  1  0  0  0  0  0  0  0  0  0
    1.2031   -5.7922   -2.9893 N   0  0  0  0  0  0  0  0  0  0  0  0
    2.4057   -7.3574   -3.7851 H   0  0  0  0  0  0  0  0  0  0  0  0
    3.0374   -5.7167   -4.0364 H   0  0  0  0  0  0  0  0  0  0  0  0
    4.3321   -6.0698   -2.1108 H   0  0  0  0  0  0  0  0  0  0  0  0
    3.3767   -7.5104   -1.6655 H   0  0  0  0  0  0  0  0  0  0  0  0
   -1.0656   -3.7331    0.6458 C   0  0  0  0  0  0  0  0  0  0  0  0
    0.1890   -4.3210    0.2711 N   0  0  0  0  0  0  0  0  0  0  0  0
    0.1290   -4.7616   -1.0226 C   0  0  0  0  0  0  0  0  0  0  0  0
   -1.8922   -3.9261   -0.6338 C   0  0  0  0  0  0  0  0  0  0  0  0
   -1.0143   -4.5896   -1.6340 N   0  0  0  0  0  0  0  0  0  0  0  0
   -2.2367   -2.9650   -1.0296 H   0  0  0  0  0  0  0  0  0  0  0  0
   -2.7694   -4.5538   -0.4456 H   0  0  0  0  0  0  0  0  0  0  0  0
   -0.9566   -2.6724    0.8915 H   0  0  0  0  0  0  0  0  0  0  0  0
   -1.5184   -4.2549    1.4941 H   0  0  0  0  0  0  0  0  0  0  0  0
    2.6932   -5.5664   -0.1479 H   0  0  0  0  0  0  0  0  0  0  0  0
    1.0037   -4.3337    0.8598 H   0  0  0  0  0  0  0  0  0  0  0  0
  1 19  1  0  0  0  0
  2  9  1  0  0  0  0
  2  1  1  0  0  0  0
  3  5  1  0  0  0  0
  3  2  1  0  0  0  0
  4  1  1  0  0  0  0
  4 12  1  1  0  0  0
  5  4  1  0  0  0  0
  6  3  1  0  0  0  0
  7  3  1  0  0  0  0
  8  2  1  0  0  0  0
 10 17  1  0  0  0  0
 10 18  1  0  0  0  0
 11 10  1  0  0  0  0
 11 20  1  0  0  0  0
 12 11  1  0  0  0  0
 13 16  1  0  0  0  0
 13 10  1  0  0  0  0
 14 12  2  0  0  0  0
 14 13  1  0  0  0  0
 15 13  1  0  0  0  0
M  END
