
 OpenBabel10041821123D

 18 19  0  0  1  0  0  0  0  0999 V2000
    2.6351   -5.6683   -0.8436 S   0  0  0  0  0  0  0  0  0  0  0  0
    3.3910   -6.5876   -2.1422 C   0  0  0  0  0  0  0  0  0  0  0  0
    2.5211   -6.3922   -3.3775 C   0  0  0  0  0  0  0  0  0  0  0  0
    1.2337   -5.4275   -1.8102 C   0  0  1  0  0  0  0  0  0  0  0  0
    1.2101   -5.8164   -3.0408 N   0  0  0  0  0  0  0  0  0  0  0  0
    2.3646   -7.3565   -3.8720 H   0  0  0  0  0  0  0  0  0  0  0  0
    3.0158   -5.7311   -4.0971 H   0  0  0  0  0  0  0  0  0  0  0  0
    4.3909   -6.1744   -2.2604 H   0  0  0  0  0  0  0  0  0  0  0  0
    3.4137   -7.6259   -1.8108 H   0  0  0  0  0  0  0  0  0  0  0  0
   -1.2387   -3.6654    0.6653 C   0  0  0  0  0  0  0  0  0  0  0  0
    0.4030   -4.2894    0.5147 S   0  0  0  0  0  0  0  0  0  0  0  0
    0.0907   -4.7790   -1.1110 C   0  0  0  0  0  0  0  0  0  0  0  0
   -1.9318   -3.9218   -0.6627 C   0  0  0  0  0  0  0  0  0  0  0  0
   -1.0526   -4.5735   -1.6442 N   0  0  0  0  0  0  0  0  0  0  0  0
   -2.2754   -2.9720   -1.0809 H   0  0  0  0  0  0  0  0  0  0  0  0
   -2.8024   -4.5636   -0.5027 H   0  0  0  0  0  0  0  0  0  0  0  0
   -1.1599   -2.6000    0.8802 H   0  0  0  0  0  0  0  0  0  0  0  0
   -1.7234   -4.1970    1.4845 H   0  0  0  0  0  0  0  0  0  0  0  0
  2  9  1  0  0  0  0
  2  1  1  0  0  0  0
  3  5  1  0  0  0  0
  3  2  1  0  0  0  0
  4 12  1  1  0  0  0
  4  1  1  0  0  0  0
  5  4  1  0  0  0  0
  6  3  1  0  0  0  0
  7  3  1  0  0  0  0
  8  2  1  0  0  0  0
 10 17  1  0  0  0  0
 10 18  1  0  0  0  0
 11 10  1  0  0  0  0
 12 11  1  0  0  0  0
 13 16  1  0  0  0  0
 13 10  1  0  0  0  0
 14 12  2  0  0  0  0
 14 13  1  0  0  0  0
 15 13  1  0  0  0  0
M  END
