
 OpenBabel11101611273D

 12 12  0  0  0  0  0  0  0  0999 V2000
    2.1367    0.1253    0.3201 O   0  5  0  0  0  0  0  0  0  0  0  0
    3.4604    0.1297    0.0829 C   0  0  0  0  0  0  0  0  0  0  0  0
    4.1399    1.3384   -0.0911 C   0  0  0  0  0  0  0  0  0  0  0  0
    5.5165    1.3399   -0.3376 C   0  0  0  0  0  0  0  0  0  0  0  0
    6.2422    0.1285   -0.4164 C   0  0  0  0  0  0  0  0  0  0  0  0
    5.5331   -1.0842   -0.2376 C   0  0  0  0  0  0  0  0  0  0  0  0
    4.1571   -1.0763    0.0086 C   0  0  0  0  0  0  0  0  0  0  0  0
    3.4728    2.5039   -0.0203 O   0  5  0  0  0  0  0  0  0  0  0  0
    6.0166    2.2900   -0.4677 H   0  0  0  0  0  0  0  0  0  0  0  0
    6.0264   -2.0429   -0.2855 H   0  0  0  0  0  0  0  0  0  0  0  0
    3.6311   -2.0133    0.1430 H   0  0  0  0  0  0  0  0  0  0  0  0
    7.2054    0.1141   -0.7761 H   0  0  0  0  0  0  0  0  0  0  0  0
  1  2  1  0  0  0  0
  2  3  2  0  0  0  0
  2  7  1  0  0  0  0
  3  4  1  0  0  0  0
  3  8  1  0  0  0  0
  4  5  2  0  0  0  0
  4  9  1  0  0  0  0
  5  6  1  0  0  0  0
  6  7  2  0  0  0  0
  6 10  1  0  0  0  0
  7 11  1  0  0  0  0
 12  5  1  0  0  0  0
M  CHG  2   1  -1   8  -1
M  END
