
 OpenBabel11161611223D

 12 12  0  0  0  0  0  0  0  0999 V2000
   -1.3752   -0.0423   -0.0187 C   0  0  0  0  0  0  0  0  0  0  0  0
   -0.7967    1.1546    0.0047 C   0  0  0  0  0  0  0  0  0  0  0  0
    0.6622    1.2575    0.0441 C   0  0  0  0  0  0  0  0  0  0  0  0
    1.4080    0.0532    0.0611 N   0  0  0  0  0  0  0  0  0  0  0  0
    0.7560   -1.1821    0.0385 C   0  0  0  0  0  0  0  0  0  0  0  0
   -0.5798   -1.2629   -0.0011 C   0  0  0  0  0  0  0  0  0  0  0  0
   -2.7770   -0.1719   -0.0548 C   0  0  0  0  0  0  0  0  0  0  0  0
   -1.3429    2.0803   -0.0050 H   0  0  0  0  0  0  0  0  0  0  0  0
    1.1946    2.1682    0.0604 H   0  0  0  0  0  0  0  0  0  0  0  0
    1.3757   -2.0322    0.0543 H   0  0  0  0  0  0  0  0  0  0  0  0
   -1.0924   -2.2204   -0.0203 H   0  0  0  0  0  0  0  0  0  0  0  0
   -3.9141   -0.3396   -0.0907 N   0  0  0  0  0  0  0  0  0  0  0  0
  1  2  2  0  0  0  0
  1  6  1  0  0  0  0
  1  7  1  0  0  0  0
  2  3  1  0  0  0  0
  2  8  1  0  0  0  0
  3  4  1  0  0  0  0
  3  9  1  0  0  0  0
  4  5  1  0  0  0  0
  5  6  2  0  0  0  0
  5 10  1  0  0  0  0
  6 11  1  0  0  0  0
 12  7  3  0  0  0  0
M  END
