
 OpenBabel03151711573D

 52 56  0  0  0  0  0  0  0  0999 V2000
    0.5636    1.9448    0.1800 N   0  0  0  0  0  0  0  0  0  0  0  0
   -2.0349    0.5303   -0.2055 N   0  0  0  0  0  0  0  0  0  0  0  0
    1.9173   -0.5357    0.1864 N   0  0  0  0  0  0  0  0  0  0  0  0
   -0.5393   -1.9676   -0.1796 N   0  0  0  0  0  0  0  0  0  0  0  0
    1.8127    2.5021    0.3575 C   0  0  0  0  0  0  0  0  0  0  0  0
    1.6568    3.8899    0.4848 C   0  0  0  0  0  0  0  0  0  0  0  0
    0.3330    4.1865    0.3036 C   0  0  0  0  0  0  0  0  0  0  0  0
   -0.3172    2.9856    0.1453 C   0  0  0  0  0  0  0  0  0  0  0  0
    2.3723    4.6475    0.7250 H   0  0  0  0  0  0  0  0  0  0  0  0
   -0.1208    5.1675    0.3641 H   0  0  0  0  0  0  0  0  0  0  0  0
   -1.8145    2.9066    0.1011 C   0  0  0  0  0  0  0  0  0  0  0  0
    2.9902    1.7935    0.4964 C   0  0  0  0  0  0  0  0  0  0  0  0
   -3.9125    1.7761   -0.1903 C   0  0  0  0  0  0  0  0  0  0  0  0
   -4.2961    0.4839   -0.4421 C   0  0  0  0  0  0  0  0  0  0  0  0
   -3.1455   -0.2994   -0.4067 C   0  0  0  0  0  0  0  0  0  0  0  0
   -2.5352    1.7766   -0.0569 C   0  0  0  0  0  0  0  0  0  0  0  0
   -4.5720    2.6329   -0.1507 H   0  0  0  0  0  0  0  0  0  0  0  0
   -5.3132    0.1787   -0.6172 H   0  0  0  0  0  0  0  0  0  0  0  0
   -3.1087   -1.6878   -0.4913 C   0  0  0  0  0  0  0  0  0  0  0  0
    2.4114   -1.7775    0.0359 C   0  0  0  0  0  0  0  0  0  0  0  0
    3.7869   -1.7819    0.1277 C   0  0  0  0  0  0  0  0  0  0  0  0
    4.1640   -0.4827    0.3401 C   0  0  0  0  0  0  0  0  0  0  0  0
    2.9899    0.2759    0.4121 C   0  0  0  0  0  0  0  0  0  0  0  0
    4.4481   -2.6326    0.0325 H   0  0  0  0  0  0  0  0  0  0  0  0
    5.1859   -0.1390    0.4245 H   0  0  0  0  0  0  0  0  0  0  0  0
   -1.7373   -3.8882   -0.4411 C   0  0  0  0  0  0  0  0  0  0  0  0
   -0.4036   -4.2148   -0.4261 C   0  0  0  0  0  0  0  0  0  0  0  0
    0.2996   -3.0265   -0.2909 C   0  0  0  0  0  0  0  0  0  0  0  0
   -1.8076   -2.4827   -0.3526 C   0  0  0  0  0  0  0  0  0  0  0  0
   -2.5356   -4.6055   -0.5628 H   0  0  0  0  0  0  0  0  0  0  0  0
    0.0123   -5.2126   -0.5052 H   0  0  0  0  0  0  0  0  0  0  0  0
    1.6267   -2.9765   -0.2136 C   0  0  0  0  0  0  0  0  0  0  0  0
   -2.3545    3.8481    0.1674 H   0  0  0  0  0  0  0  0  0  0  0  0
    2.1720   -3.9148   -0.2525 H   0  0  0  0  0  0  0  0  0  0  0  0
   -4.3057   -2.5674   -0.7578 C   0  0  0  0  0  0  0  0  0  0  0  0
   -5.5488   -2.5800   -0.2144 C   0  0  0  0  0  0  0  0  0  0  0  0
   -6.5390   -3.6051   -0.6590 C   0  0  0  0  0  0  0  0  0  0  0  0
   -5.9330   -1.7026    0.8661 C   0  0  0  0  0  0  0  0  0  0  0  0
   -6.1965   -0.9483    1.7036 N   0  0  0  0  0  0  0  0  0  0  0  0
   -6.2552   -4.4161   -1.5310 O   0  0  0  0  0  0  0  0  0  0  0  0
   -7.7652   -3.6500   -0.0953 O   0  0  0  0  0  0  0  0  0  0  0  0
   -8.4189   -4.3103   -0.3687 H   0  0  0  0  0  0  0  0  0  0  0  0
   -4.1011   -3.3529   -1.4786 H   0  0  0  0  0  0  0  0  0  0  0  0
    4.3277    2.4132    0.8847 C   0  0  0  0  0  0  0  0  0  0  0  0
    6.7267    3.1610    2.0966 O   0  0  0  0  0  0  0  0  0  0  0  0
    6.2430    3.9254    1.2739 C   0  0  0  0  0  0  0  0  0  0  0  0
    6.8802    5.0965    1.0498 O   0  0  0  0  0  0  0  0  0  0  0  0
    4.9496    3.5830    0.5843 C   0  0  0  0  0  0  0  0  0  0  0  0
    6.5458    5.7770    0.4522 H   0  0  0  0  0  0  0  0  0  0  0  0
    4.4475    4.5148   -0.3965 C   0  0  0  0  0  0  0  0  0  0  0  0
    4.0816    5.2749   -1.1890 N   0  0  0  0  0  0  0  0  0  0  0  0
    4.8820    1.7782    1.5629 H   0  0  0  0  0  0  0  0  0  0  0  0
  1  8  2  0  0  0  0
  1  5  1  0  0  0  0
  2 16  1  0  0  0  0
  3 23  1  0  0  0  0
  5 12  2  0  0  0  0
  5  6  1  0  0  0  0
  6  9  1  0  0  0  0
  7 10  1  0  0  0  0
  7  6  2  0  0  0  0
  8  7  1  0  0  0  0
 11 33  1  0  0  0  0
 11  8  1  0  0  0  0
 12 44  1  0  0  0  0
 13 17  1  0  0  0  0
 13 16  1  0  0  0  0
 14 15  1  0  0  0  0
 14 13  2  0  0  0  0
 15  2  1  0  0  0  0
 16 11  2  0  0  0  0
 18 14  1  0  0  0  0
 19 29  1  0  0  0  0
 19 15  2  0  0  0  0
 20  3  1  0  0  0  0
 20 21  2  0  0  0  0
 21 24  1  0  0  0  0
 21 22  1  0  0  0  0
 22 25  1  0  0  0  0
 23 22  2  0  0  0  0
 23 12  1  0  0  0  0
 26 27  2  0  0  0  0
 26 29  1  0  0  0  0
 27 28  1  0  0  0  0
 28  4  1  0  0  0  0
 28 32  2  0  0  0  0
 29  4  2  0  0  0  0
 30 26  1  0  0  0  0
 31 27  1  0  0  0  0
 32 20  1  0  0  0  0
 34 32  1  0  0  0  0
 35 19  1  0  0  0  0
 36 35  2  0  0  0  0
 36 38  1  0  0  0  0
 37 41  1  0  0  0  0
 37 36  1  0  0  0  0
 38 39  3  0  0  0  0
 40 37  2  0  0  0  0
 42 41  1  0  0  0  0
 43 35  1  0  0  0  0
 44 48  2  0  0  0  0
 44 52  1  0  0  0  0
 46 47  1  0  0  0  0
 46 45  2  0  0  0  0
 48 46  1  0  0  0  0
 49 47  1  0  0  0  0
 50 48  1  0  0  0  0
 51 50  3  0  0  0  0
M  CHG  2   5  -1   6  -1
M  END
