
 OpenBabel07041717263D

 10 10  0  0  0  0  0  0  0  0999 V2000
    0.0012    1.1109   -0.2471 C   0  0  0  0  0  0  0  0  0  0  0  0
    1.1733    0.2828   -0.1339 C   0  0  0  0  0  0  0  0  0  0  0  0
    0.7287   -0.9731    0.0442 C   0  0  0  0  0  0  0  0  0  0  0  0
   -0.7260   -0.9713    0.0482 C   0  0  0  0  0  0  0  0  0  0  0  0
   -1.1705    0.2830   -0.1271 C   0  0  0  0  0  0  0  0  0  0  0  0
    0.0008    2.1765   -0.4056 H   0  0  0  0  0  0  0  0  0  0  0  0
    2.1955    0.6184   -0.1849 H   0  0  0  0  0  0  0  0  0  0  0  0
    1.3349   -1.8571    0.1665 H   0  0  0  0  0  0  0  0  0  0  0  0
   -1.3324   -1.8548    0.1739 H   0  0  0  0  0  0  0  0  0  0  0  0
   -2.1927    0.6194   -0.1723 H   0  0  0  0  0  0  0  0  0  0  0  0
  1  2  1  0  0  0  0
  1  5  1  0  0  0  0
  1  6  1  0  0  0  0
  2  3  2  0  0  0  0
  2  7  1  0  0  0  0
  3  4  1  0  0  0  0
  3  8  1  0  0  0  0
  4  5  2  0  0  0  0
  4  9  1  0  0  0  0
  5 10  1  0  0  0  0
M  CHG  1   1  -1
M  END
