
 OpenBabel03301715273D

 18 18  0  0  0  0  0  0  0  0999 V2000
   -0.6830    0.5832    0.5232 O   0  0  0  0  0  0  0  0  0  0  0  0
    0.4972    0.6105    0.2036 C   0  0  0  0  0  0  0  0  0  0  0  0
    1.2224    1.7374    0.1217 N   0  0  0  0  0  0  0  0  0  0  0  0
    0.7485    3.0787    0.3898 C   0  0  0  0  0  0  0  0  0  0  0  0
    2.5732    1.4212   -0.2800 C   0  0  0  0  0  0  0  0  0  0  0  0
    2.5622   -0.1165   -0.4358 C   0  0  0  0  0  0  0  0  0  0  0  0
    1.2063   -0.4856   -0.1034 N   0  0  0  0  0  0  0  0  0  0  0  0
    0.6940   -1.8381   -0.1031 C   0  0  0  0  0  0  0  0  0  0  0  0
   -0.3229    3.0800    0.6827 H   0  0  0  0  0  0  0  0  0  0  0  0
    0.8672    3.7032   -0.5204 H   0  0  0  0  0  0  0  0  0  0  0  0
    1.3416    3.5239    1.2158 H   0  0  0  0  0  0  0  0  0  0  0  0
    3.2888    1.7390    0.5089 H   0  0  0  0  0  0  0  0  0  0  0  0
    2.8095    1.9201   -1.2448 H   0  0  0  0  0  0  0  0  0  0  0  0
    3.2712   -0.5967    0.2730 H   0  0  0  0  0  0  0  0  0  0  0  0
    2.7918   -0.4156   -1.4814 H   0  0  0  0  0  0  0  0  0  0  0  0
    1.4912   -2.5545   -0.3949 H   0  0  0  0  0  0  0  0  0  0  0  0
   -0.1440   -1.9226   -0.8268 H   0  0  0  0  0  0  0  0  0  0  0  0
    0.3313   -2.1022    0.9127 H   0  0  0  0  0  0  0  0  0  0  0  0
  1  2  2  0  0  0  0
  2  3  1  0  0  0  0
  2  7  1  0  0  0  0
  3  4  1  0  0  0  0
  3  5  1  0  0  0  0
  4  9  1  0  0  0  0
  4 10  1  0  0  0  0
  4 11  1  0  0  0  0
  5  6  1  0  0  0  0
  5 12  1  0  0  0  0
  5 13  1  0  0  0  0
  6  7  1  0  0  0  0
  6 14  1  0  0  0  0
  6 15  1  0  0  0  0
  7  8  1  0  0  0  0
  8 16  1  0  0  0  0
  8 17  1  0  0  0  0
  8 18  1  0  0  0  0
M  END
