
 OpenBabel11011616083D

  8  7  0  0  0  0  0  0  0  0999 V2000
   -1.6084    2.9019    0.1569 S   0  0  0  0  0  0  0  0  0  0  0  0
   -0.6079    1.4208   -0.1721 C   0  0  0  0  0  0  0  0  0  0  0  0
    0.8561    1.6944    0.1375 C   0  0  0  0  0  0  0  0  0  0  0  0
    1.4573    0.7836   -0.0669 H   0  0  0  0  0  0  0  0  0  0  0  0
    0.9761    1.9703    1.2067 H   0  0  0  0  0  0  0  0  0  0  0  0
    1.2335    2.5230   -0.4987 H   0  0  0  0  0  0  0  0  0  0  0  0
   -0.7182    1.1382   -1.2403 H   0  0  0  0  0  0  0  0  0  0  0  0
   -0.9751    0.5865    0.4620 H   0  0  0  0  0  0  0  0  0  0  0  0
  2  1  1  0  0  0  0
  2  7  1  0  0  0  0
  2  8  1  0  0  0  0
  3  2  1  0  0  0  0
  3  4  1  0  0  0  0
  3  5  1  0  0  0  0
  3  6  1  0  0  0  0
M  CHG  1   1  -1
M  END
