
 OpenBabel10081813063D

  4  3  0  0  0  0  0  0  0  0999 V2000
    0.0000    0.0000    0.0000 C   0  0  0  0  0  0  0  0  0  0  0  0
   -0.1588   -1.4902    0.0643 O   0  0  0  0  0  0  0  0  0  0  0  0
    0.6293    0.4809    0.6617 H   0  0  0  0  0  0  0  0  0  0  0  0
   -0.5200    0.5444   -0.7059 H   0  0  0  0  0  0  0  0  0  0  0  0
  1  2  2  0  0  0  0
  1  3  1  0  0  0  0
  1  4  1  0  0  0  0
M  END
