
 OpenBabel10241616513D

  9  9  0  0  0  0  0  0  0  0999 V2000
    1.4344    4.1204    1.2471 O   0  0  0  0  0  0  0  0  0  0  0  0
    1.5717    4.2266    2.5497 C   0  0  0  0  0  0  0  0  0  0  0  0
    2.2772    3.1412    3.0237 C   0  0  0  0  0  0  0  0  0  0  0  0
    2.5635    2.3626    1.9257 C   0  0  0  0  0  0  0  0  0  0  0  0
    2.0172    3.0149    0.8410 C   0  0  0  0  0  0  0  0  0  0  0  0
    1.1849    5.0450    3.1420 H   0  0  0  0  0  0  0  0  0  0  0  0
    2.5506    2.9419    4.0511 H   0  0  0  0  0  0  0  0  0  0  0  0
    2.0532    2.6834   -0.1881 H   0  0  0  0  0  0  0  0  0  0  0  0
    3.1074    1.4275    1.9158 H   0  0  0  0  0  0  0  0  0  0  0  0
  1  2  1  0  0  0  0
  2  3  2  0  0  0  0
  2  6  1  0  0  0  0
  3  7  1  0  0  0  0
  4  3  1  0  0  0  0
  4  9  1  0  0  0  0
  5  1  1  0  0  0  0
  5  4  2  0  0  0  0
  5  8  1  0  0  0  0
M  END
