
 OpenBabel03301715323D

 29 28  0  0  0  0  0  0  0  0999 V2000
    1.3396    0.5342   -1.2779 O   0  0  0  0  0  0  0  0  0  0  0  0
    2.4761   -0.1116   -0.1661 P   0  0  0  0  0  0  0  0  0  0  0  0
    1.9095   -0.3119    1.5867 N   0  0  0  0  0  0  0  0  0  0  0  0
    2.3567   -1.5743    2.1819 C   0  0  0  0  0  0  0  0  0  0  0  0
    2.4029    0.7540    2.5007 C   0  0  0  0  0  0  0  0  0  0  0  0
    2.8499   -1.7566   -1.0031 N   0  0  0  0  0  0  0  0  0  0  0  0
    2.5104   -3.0577   -0.4224 C   0  0  0  0  0  0  0  0  0  0  0  0
    3.9043   -1.8902   -2.0431 C   0  0  0  0  0  0  0  0  0  0  0  0
    4.2522    0.5372   -0.0188 N   0  0  0  0  0  0  0  0  0  0  0  0
    4.5882    1.7964    0.6791 C   0  0  0  0  0  0  0  0  0  0  0  0
    5.2676   -0.3879    0.4609 C   0  0  0  0  0  0  0  0  0  0  0  0
    3.3784   -1.8407    1.8439 H   0  0  0  0  0  0  0  0  0  0  0  0
    1.6057   -2.3512    1.9986 H   0  0  0  0  0  0  0  0  0  0  0  0
    2.3951   -1.5255    3.2918 H   0  0  0  0  0  0  0  0  0  0  0  0
    2.4052    1.7677    2.0957 H   0  0  0  0  0  0  0  0  0  0  0  0
    3.4284    0.5594    2.8819 H   0  0  0  0  0  0  0  0  0  0  0  0
    1.7179    0.8247    3.3668 H   0  0  0  0  0  0  0  0  0  0  0  0
    3.3169   -3.4177    0.2438 H   0  0  0  0  0  0  0  0  0  0  0  0
    2.3857   -3.8022   -1.2392 H   0  0  0  0  0  0  0  0  0  0  0  0
    1.5293   -3.0451    0.0694 H   0  0  0  0  0  0  0  0  0  0  0  0
    4.8608   -2.2862   -1.6724 H   0  0  0  0  0  0  0  0  0  0  0  0
    4.1172   -0.9925   -2.5988 H   0  0  0  0  0  0  0  0  0  0  0  0
    3.6047   -2.6329   -2.8066 H   0  0  0  0  0  0  0  0  0  0  0  0
    3.7745    2.4228    0.7619 H   0  0  0  0  0  0  0  0  0  0  0  0
    5.4520    2.2976    0.1855 H   0  0  0  0  0  0  0  0  0  0  0  0
    4.8613    1.7131    1.7367 H   0  0  0  0  0  0  0  0  0  0  0  0
    5.1309   -1.4017    0.1266 H   0  0  0  0  0  0  0  0  0  0  0  0
    6.2625   -0.0211    0.1065 H   0  0  0  0  0  0  0  0  0  0  0  0
    5.2576   -0.4217    1.5667 H   0  0  0  0  0  0  0  0  0  0  0  0
  1  2  2  0  0  0  0
  2  3  1  0  0  0  0
  2  6  1  0  0  0  0
  2  9  1  0  0  0  0
  3  4  1  0  0  0  0
  3  5  1  0  0  0  0
  4 12  1  0  0  0  0
  4 13  1  0  0  0  0
  4 14  1  0  0  0  0
  5 15  1  0  0  0  0
  5 16  1  0  0  0  0
  5 17  1  0  0  0  0
  6  7  1  0  0  0  0
  6  8  1  0  0  0  0
  7 18  1  0  0  0  0
  7 19  1  0  0  0  0
  7 20  1  0  0  0  0
  8 21  1  0  0  0  0
  8 22  1  0  0  0  0
  8 23  1  0  0  0  0
  9 10  1  0  0  0  0
  9 11  1  0  0  0  0
 10 24  1  0  0  0  0
 10 25  1  0  0  0  0
 10 26  1  0  0  0  0
 11 27  1  0  0  0  0
 11 28  1  0  0  0  0
 11 29  1  0  0  0  0
M  END
