
 OpenBabel10041821163D

 11 11  0  0  0  0  0  0  0  0999 V2000
   -1.0577   -3.7699    0.5958 C   0  0  0  0  0  0  0  0  0  0  0  0
    0.1651   -4.4414    0.2664 N   0  0  0  0  0  0  0  0  0  0  0  0
    0.0830   -4.9515   -0.9788 C   0  0  0  0  0  0  0  0  0  0  0  0
   -1.8667   -3.9691   -0.6995 C   0  0  0  0  0  0  0  0  0  0  0  0
   -1.0087   -4.7485   -1.6466 N   0  0  0  0  0  0  0  0  0  0  0  0
   -2.1374   -3.0078   -1.1492 H   0  0  0  0  0  0  0  0  0  0  0  0
   -2.7854   -4.5314   -0.5030 H   0  0  0  0  0  0  0  0  0  0  0  0
   -0.8899   -2.7102    0.8087 H   0  0  0  0  0  0  0  0  0  0  0  0
   -1.5498   -4.2440    1.4497 H   0  0  0  0  0  0  0  0  0  0  0  0
    0.9534   -5.5136   -1.3508 H   0  0  0  0  0  0  0  0  0  0  0  0
    0.9550   -4.5148    0.8891 H   0  0  0  0  0  0  0  0  0  0  0  0
  1  8  1  0  0  0  0
  1  9  1  0  0  0  0
  2  1  1  0  0  0  0
  2 11  1  0  0  0  0
  3  2  1  0  0  0  0
  4  7  1  0  0  0  0
  4  1  1  0  0  0  0
  5  3  2  0  0  0  0
  5  4  1  0  0  0  0
  6  4  1  0  0  0  0
 10  3  1  0  0  0  0
M  END
