
 OpenBabel10041821123D

 10 10  0  0  0  0  0  0  0  0999 V2000
   -1.1412   -3.7144    0.6468 C   0  0  0  0  0  0  0  0  0  0  0  0
    0.4856   -4.4667    0.5179 S   0  0  0  0  0  0  0  0  0  0  0  0
    0.1487   -5.0299   -1.0887 C   0  0  0  0  0  0  0  0  0  0  0  0
   -1.8366   -3.9781   -0.6816 C   0  0  0  0  0  0  0  0  0  0  0  0
   -0.9950   -4.7537   -1.6079 N   0  0  0  0  0  0  0  0  0  0  0  0
   -2.1113   -3.0293   -1.1571 H   0  0  0  0  0  0  0  0  0  0  0  0
   -2.7714   -4.5247   -0.5115 H   0  0  0  0  0  0  0  0  0  0  0  0
   -1.0467   -2.6411    0.8373 H   0  0  0  0  0  0  0  0  0  0  0  0
   -1.6962   -4.1616    1.4769 H   0  0  0  0  0  0  0  0  0  0  0  0
    0.9073   -5.6090   -1.6376 H   0  0  0  0  0  0  0  0  0  0  0  0
  1  8  1  0  0  0  0
  1  9  1  0  0  0  0
  2  1  1  0  0  0  0
  3  2  1  0  0  0  0
  4  7  1  0  0  0  0
  4  1  1  0  0  0  0
  5  3  2  0  0  0  0
  5  4  1  0  0  0  0
  6  4  1  0  0  0  0
 10  3  1  0  0  0  0
M  END
