
 OpenBabel10041822593D

 13 13  0  0  0  0  0  0  0  0999 V2000
    1.4824    7.7286   15.9097 N   0  0  0  0  0  0  0  0  0  0  0  0
    2.6896    7.3332   15.2111 C   0  0  0  0  0  0  0  0  0  0  0  0
    3.7593    6.9638   16.2324 C   0  0  0  0  0  0  0  0  0  0  0  0
    3.1789    5.8674   17.1323 C   0  0  0  0  0  0  0  0  0  0  0  0
    1.9270    6.2282   17.6143 O   0  0  0  0  0  0  0  0  0  0  0  0
    1.1406    7.1784   17.0296 C   0  0  0  0  0  0  0  0  0  0  0  0
    3.9764    7.8627   16.8512 H   0  0  0  0  0  0  0  0  0  0  0  0
    4.7003    6.6285   15.7467 H   0  0  0  0  0  0  0  0  0  0  0  0
    3.8741    5.6916   17.9798 H   0  0  0  0  0  0  0  0  0  0  0  0
    3.0745    4.9163   16.5663 H   0  0  0  0  0  0  0  0  0  0  0  0
    3.0379    8.1650   14.5638 H   0  0  0  0  0  0  0  0  0  0  0  0
    2.4678    6.4544   14.5660 H   0  0  0  0  0  0  0  0  0  0  0  0
    0.2203    7.4822   17.5152 H   0  0  0  0  0  0  0  0  0  0  0  0
  1  6  2  0  0  0  0
  2  1  1  0  0  0  0
  2  3  1  0  0  0  0
  2 11  1  0  0  0  0
  2 12  1  0  0  0  0
  3  4  1  0  0  0  0
  3  7  1  0  0  0  0
  3  8  1  0  0  0  0
  4  5  1  0  0  0  0
  4  9  1  0  0  0  0
  4 10  1  0  0  0  0
  6  5  1  0  0  0  0
 13  6  1  0  0  0  0
M  END
