
 OpenBabel11161611473D

 26 27  0  0  0  0  0  0  0  0999 V2000
    1.8331    7.6443   16.6289 N   0  0  0  0  0  0  0  0  0  0  0  0
   -0.5888    8.2304   17.7123 N   0  0  0  0  0  0  0  0  0  0  0  0
    3.0014    7.3900   15.9936 C   0  0  0  0  0  0  0  0  0  0  0  0
    3.1540    7.7534   14.9914 H   0  0  0  0  0  0  0  0  0  0  0  0
    3.9920    6.6621   16.6399 C   0  0  0  0  0  0  0  0  0  0  0  0
    4.9248    6.4559   16.1362 H   0  0  0  0  0  0  0  0  0  0  0  0
    3.7638    6.2056   17.9378 C   0  0  0  0  0  0  0  0  0  0  0  0
    2.5619    6.4760   18.5744 C   0  0  0  0  0  0  0  0  0  0  0  0
    2.4186    6.1047   19.5785 H   0  0  0  0  0  0  0  0  0  0  0  0
   -0.0647    7.1691   19.7856 C   0  0  0  0  0  0  0  0  0  0  0  0
    0.6000    6.6203   20.4400 H   0  0  0  0  0  0  0  0  0  0  0  0
   -1.3211    7.5217   20.2602 C   0  0  0  0  0  0  0  0  0  0  0  0
   -2.2044    8.2306   19.4452 C   0  0  0  0  0  0  0  0  0  0  0  0
   -3.1828    8.5068   19.8084 H   0  0  0  0  0  0  0  0  0  0  0  0
   -1.8143    8.5787   18.1615 C   0  0  0  0  0  0  0  0  0  0  0  0
   -2.4823    9.1262   17.5161 H   0  0  0  0  0  0  0  0  0  0  0  0
    1.5864    7.2123   17.8911 C   0  0  0  0  0  0  0  0  0  0  0  0
    0.2942    7.5370   18.4836 C   0  0  0  0  0  0  0  0  0  0  0  0
   -1.7338    7.1506   21.6270 C   0  0  0  0  0  0  0  0  0  0  0  0
    4.7826    5.4283   18.6673 C   0  0  0  0  0  0  0  0  0  0  0  0
    5.6881    5.2862   18.0465 H   0  0  0  0  0  0  0  0  0  0  0  0
    4.3295    4.4457   18.9175 H   0  0  0  0  0  0  0  0  0  0  0  0
    5.0327    5.9976   19.5874 H   0  0  0  0  0  0  0  0  0  0  0  0
   -0.9339    6.5915   22.1589 H   0  0  0  0  0  0  0  0  0  0  0  0
   -2.6339    6.5111   21.5310 H   0  0  0  0  0  0  0  0  0  0  0  0
   -1.9512    8.0936   22.1672 H   0  0  0  0  0  0  0  0  0  0  0  0
  1 17  1  0  0  0  0
  2 15  2  0  0  0  0
  2 18  1  0  0  0  0
  3  1  2  0  0  0  0
  3  5  1  0  0  0  0
  4  3  1  0  0  0  0
  5  7  2  0  0  0  0
  6  5  1  0  0  0  0
  7  8  1  0  0  0  0
  7 20  1  0  0  0  0
  8  9  1  0  0  0  0
 10 12  1  0  0  0  0
 10 11  1  0  0  0  0
 12 19  1  0  0  0  0
 13 14  1  0  0  0  0
 13 12  2  0  0  0  0
 15 13  1  0  0  0  0
 16 15  1  0  0  0  0
 17 18  1  0  0  0  0
 17  8  2  0  0  0  0
 18 10  2  0  0  0  0
 19 24  1  0  0  0  0
 19 25  1  0  0  0  0
 19 26  1  0  0  0  0
 20 21  1  0  0  0  0
 20 22  1  0  0  0  0
 20 23  1  0  0  0  0
M  END
