
 OpenBabel03301716233D

 15 15  0  0  0  0  0  0  0  0999 V2000
    2.2946    0.1074    0.3140 O   0  5  0  0  0  0  0  0  0  0  0  0
    3.6168    0.1309    0.0606 C   0  0  0  0  0  0  0  0  0  0  0  0
    4.2779    1.3519   -0.1158 C   0  0  0  0  0  0  0  0  0  0  0  0
    5.6537    1.3708   -0.3823 C   0  0  0  0  0  0  0  0  0  0  0  0
    6.3803    0.1719   -0.4770 C   0  0  0  0  0  0  0  0  0  0  0  0
    5.7070   -1.0506   -0.2949 C   0  0  0  0  0  0  0  0  0  0  0  0
    4.3303   -1.0671   -0.0270 C   0  0  0  0  0  0  0  0  0  0  0  0
    3.5978    2.5078   -0.0324 O   0  5  0  0  0  0  0  0  0  0  0  0
    6.1503    2.3231   -0.5177 H   0  0  0  0  0  0  0  0  0  0  0  0
    6.2407   -1.9904   -0.3602 H   0  0  0  0  0  0  0  0  0  0  0  0
    3.8149   -2.0101    0.1114 H   0  0  0  0  0  0  0  0  0  0  0  0
    7.8600    0.1996   -0.7744 C   0  0  0  0  0  0  0  0  0  0  0  0
    8.2334    1.2410   -0.8852 H   0  0  0  0  0  0  0  0  0  0  0  0
    8.0749   -0.3370   -1.7227 H   0  0  0  0  0  0  0  0  0  0  0  0
    8.4365   -0.2809    0.0441 H   0  0  0  0  0  0  0  0  0  0  0  0
  1  2  1  0  0  0  0
  2  3  2  0  0  0  0
  2  7  1  0  0  0  0
  3  4  1  0  0  0  0
  3  8  1  0  0  0  0
  4  5  2  0  0  0  0
  4  9  1  0  0  0  0
  5  6  1  0  0  0  0
  6  7  2  0  0  0  0
  6 10  1  0  0  0  0
  7 11  1  0  0  0  0
 12  5  1  0  0  0  0
 12 13  1  0  0  0  0
 12 14  1  0  0  0  0
 12 15  1  0  0  0  0
M  CHG  2   1  -1   8  -1
M  END
