
 OpenBabel04151615243D

  6  5  0  0  0  0  0  0  0  0999 V2000
    0.8782    0.0014    0.0977 C   0  5  0  0  0  0  0  0  0  0  0  0
    2.0233    0.0014    0.0977 N   0  3  0  0  0  0  0  0  0  0  0  0
    3.5612    0.0014    0.0977 C   0  0  0  0  0  0  0  0  0  0  0  0
    3.9134   -0.8792   -0.4943 H   0  0  0  0  0  0  0  0  0  0  0  0
    3.9134   -0.0710    1.1563 H   0  0  0  0  0  0  0  0  0  0  0  0
    3.9134    0.9544   -0.3689 H   0  0  0  0  0  0  0  0  0  0  0  0
  1  2  3  0  0  0  0
  2  3  1  0  0  0  0
  3  4  1  0  0  0  0
  3  5  1  0  0  0  0
  3  6  1  0  0  0  0
M  CHG  2   1  -1   2   1
M  END
