
 OpenBabel03141719543D

  3  2  0  0  0  0  0  0  0  0999 V2000
    0.0000    0.0000    2.0900 C   0  0  0  0  0  0  0  0  0  0  0  0
    0.7745   -0.4900    2.6570 H   0  0  0  0  0  0  0  0  0  0  0  0
   -0.8824    0.5619    2.7182 O   0  0  0  0  0  0  0  0  0  0  0  0
  1  2  1  0  0  0  0
  1  3  2  0  0  0  0
M  CHG  1   1  -1
M  END
