
 OpenBabel03301712373D

 11 10  0  0  0  0  0  0  0  0999 V2000
    1.6630   -2.4916   -0.1293 C   0  0  0  0  0  0  0  0  0  0  0  0
    2.7257   -2.3795   -1.1235 N   0  0  0  0  0  0  0  0  0  0  0  0
    2.8637   -3.2917   -1.6153 H   0  0  0  0  0  0  0  0  0  0  0  0
    3.6218   -2.0907   -0.6638 H   0  0  0  0  0  0  0  0  0  0  0  0
    2.0634   -3.3990    1.0424 C   0  0  0  0  0  0  0  0  0  0  0  0
    0.7472   -2.8952   -0.6149 H   0  0  0  0  0  0  0  0  0  0  0  0
    1.4328   -1.4775    0.2619 H   0  0  0  0  0  0  0  0  0  0  0  0
    1.0758   -3.3765    2.0351 O   0  0  0  0  0  0  0  0  0  0  0  0
    0.3178   -3.9252    1.7041 H   0  0  0  0  0  0  0  0  0  0  0  0
    3.0084   -3.0312    1.4966 H   0  0  0  0  0  0  0  0  0  0  0  0
    2.2470   -4.4425    0.6982 H   0  0  0  0  0  0  0  0  0  0  0  0
  1  2  1  0  0  0  0
  1  5  1  0  0  0  0
  1  6  1  0  0  0  0
  1  7  1  0  0  0  0
  2  4  1  0  0  0  0
  3  2  1  0  0  0  0
  5 10  1  0  0  0  0
  5 11  1  0  0  0  0
  8  5  1  0  0  0  0
  8  9  1  0  0  0  0
M  END
