
 OpenBabel11161612003D

 24 25  0  0  0  0  0  0  0  0999 V2000
    3.2537    8.6024   17.7596 N   0  0  0  0  0  0  0  0  0  0  0  0
    0.5730    9.0240   17.6235 N   0  0  0  0  0  0  0  0  0  0  0  0
    4.6024    8.4831   17.7672 C   0  0  0  0  0  0  0  0  0  0  0  0
    5.2114    9.2866   17.3887 H   0  0  0  0  0  0  0  0  0  0  0  0
    5.2074    7.3311   18.2636 C   0  0  0  0  0  0  0  0  0  0  0  0
    6.2873    7.2556   18.2618 H   0  0  0  0  0  0  0  0  0  0  0  0
    4.4116    6.2876   18.7583 C   0  0  0  0  0  0  0  0  0  0  0  0
    3.0128    6.4379   18.7372 C   0  0  0  0  0  0  0  0  0  0  0  0
    2.4026    5.6356   19.1156 H   0  0  0  0  0  0  0  0  0  0  0  0
    0.0410    6.9236   18.6389 C   0  0  0  0  0  0  0  0  0  0  0  0
    0.3349    5.9845   19.0760 H   0  0  0  0  0  0  0  0  0  0  0  0
   -1.3302    7.2230   18.5416 C   0  0  0  0  0  0  0  0  0  0  0  0
   -1.7130    8.4467   17.9722 C   0  0  0  0  0  0  0  0  0  0  0  0
   -2.7577    8.7147   17.8788 H   0  0  0  0  0  0  0  0  0  0  0  0
   -0.7380    9.3329   17.5190 C   0  0  0  0  0  0  0  0  0  0  0  0
   -1.0317   10.2768   17.0797 H   0  0  0  0  0  0  0  0  0  0  0  0
    2.4377    7.6233   18.2242 C   0  0  0  0  0  0  0  0  0  0  0  0
    0.9984    7.8501   18.1680 C   0  0  0  0  0  0  0  0  0  0  0  0
   -2.3159    6.2994   19.0128 N   0  0  0  0  0  0  0  0  0  0  0  0
    5.0119    5.0954   19.2728 N   0  0  0  0  0  0  0  0  0  0  0  0
    6.2002    4.9756   19.2869 O   0  0  0  0  0  0  0  0  0  0  0  0
    4.3310    4.2086   19.6932 O   0  0  0  0  0  0  0  0  0  0  0  0
   -1.9864    5.2584   19.4968 O   0  0  0  0  0  0  0  0  0  0  0  0
   -3.4782    6.5610   18.9264 O   0  0  0  0  0  0  0  0  0  0  0  0
  1 17  1  0  0  0  0
  2 15  2  0  0  0  0
  2 18  1  0  0  0  0
  3  1  2  0  0  0  0
  3  5  1  0  0  0  0
  4  3  1  0  0  0  0
  5  7  2  0  0  0  0
  6  5  1  0  0  0  0
  7  8  1  0  0  0  0
  7 20  1  0  0  0  0
  8  9  1  0  0  0  0
 10 12  1  0  0  0  0
 10 11  1  0  0  0  0
 12 19  1  0  0  0  0
 13 14  1  0  0  0  0
 13 12  2  0  0  0  0
 15 13  1  0  0  0  0
 16 15  1  0  0  0  0
 17 18  1  0  0  0  0
 17  8  2  0  0  0  0
 18 10  2  0  0  0  0
 19 23  2  0  0  0  0
 20 21  2  0  0  0  0
 20 22  2  0  0  0  0
 24 19  2  0  0  0  0
M  END
