
 OpenBabel11111614483D

 13 12  0  0  0  0  0  0  0  0999 V2000
   -1.4642   -0.3081   -0.0571 N   0  0  0  0  0  0  0  0  0  0  0  0
    0.0058   -0.3271   -0.0689 C   0  0  0  0  0  0  0  0  0  0  0  0
   -1.9648    0.9014   -0.7265 C   0  0  0  0  0  0  0  0  0  0  0  0
   -1.9648   -0.3719    1.3238 C   0  0  0  0  0  0  0  0  0  0  0  0
   -1.6148    0.9276   -1.7810 H   0  0  0  0  0  0  0  0  0  0  0  0
   -1.6191    1.8235   -0.2077 H   0  0  0  0  0  0  0  0  0  0  0  0
   -3.0759    0.8945   -0.7484 H   0  0  0  0  0  0  0  0  0  0  0  0
   -1.6148   -1.3054    1.8149 H   0  0  0  0  0  0  0  0  0  0  0  0
   -3.0759   -0.3945    1.3273 H   0  0  0  0  0  0  0  0  0  0  0  0
   -1.6191    0.5020    1.9204 H   0  0  0  0  0  0  0  0  0  0  0  0
    0.3802   -0.3161   -1.1152 H   0  0  0  0  0  0  0  0  0  0  0  0
    0.3802   -1.2601    0.4050 H   0  0  0  0  0  0  0  0  0  0  0  0
    0.4263    0.5484    0.4748 H   0  0  0  0  0  0  0  0  0  0  0  0
  1  2  1  0  0  0  0
  1  3  1  0  0  0  0
  1  4  1  0  0  0  0
  2 11  1  0  0  0  0
  2 12  1  0  0  0  0
  2 13  1  0  0  0  0
  3  5  1  0  0  0  0
  3  6  1  0  0  0  0
  3  7  1  0  0  0  0
  4  8  1  0  0  0  0
  4  9  1  0  0  0  0
  4 10  1  0  0  0  0
M  END
