PH2- Phosphino anion 13765430
##CCCBDB 5172214:11
Geometry Optimized at CCSD/6-31G*
  3  2  0  0  0  0  0  0  0  0999 V2000
    0.0000    0.0000    0.1188 P   0  0  0  0  0  0  0  0  0  0  0  0
    0.0000    1.0355   -0.8910 H   0  0  0  0  0  0  0  0  0  0  0  0
    0.0000   -1.0355   -0.8910 H   0  0  0  0  0  0  0  0  0  0  0  0
  1  2  1  0  0  0
  1  3  1  0  0  0
M  CHG  1   1  -1
M  END
