PH3 Phosphine 7803512
##CCCBDB 5172214:10
Geometry Optimized at CCSD(T)=FULL/6-31G*
  4  3  0  0  0  0  0  0  0  0999 V2000
    0.0000    0.0000    0.1270 P   0  0  0  0  0  0  0  0  0  0  0  0
    0.0000    1.2047   -0.6348 H   0  0  0  0  0  0  0  0  0  0  0  0
    1.0433   -0.6023   -0.6348 H   0  0  0  0  0  0  0  0  0  0  0  0
   -1.0433   -0.6023   -0.6348 H   0  0  0  0  0  0  0  0  0  0  0  0
  1  2  1  0  0  0
  1  3  1  0  0  0
  1  4  1  0  0  0
M  END
