
 OpenBabel11151712233D

 11 11  0  0  0  0  0  0  0  0999 V2000
   -1.3676   -0.0391   -0.0170 C   0  0  0  0  0  0  0  0  0  0  0  0
   -0.7989    1.1733    0.0037 C   0  0  0  0  0  0  0  0  0  0  0  0
    0.6253    1.3767    0.0440 C   0  0  0  0  0  0  0  0  0  0  0  0
    1.8237    0.0746    0.0732 P   0  0  0  0  0  0  0  0  0  0  0  0
    0.7416   -1.3272    0.0371 C   0  0  0  0  0  0  0  0  0  0  0  0
   -0.5957   -1.2608   -0.0004 C   0  0  0  0  0  0  0  0  0  0  0  0
   -2.4493   -0.1346   -0.0473 H   0  0  0  0  0  0  0  0  0  0  0  0
   -1.4204    2.0639   -0.0100 H   0  0  0  0  0  0  0  0  0  0  0  0
    1.0025    2.3932    0.0577 H   0  0  0  0  0  0  0  0  0  0  0  0
    1.2357   -2.2934    0.0471 H   0  0  0  0  0  0  0  0  0  0  0  0
   -1.1677   -2.1854   -0.0204 H   0  0  0  0  0  0  0  0  0  0  0  0
  1  2  2  0  0  0  0
  1  6  1  0  0  0  0
  1  7  1  0  0  0  0
  2  3  1  0  0  0  0
  2  8  1  0  0  0  0
  3  4  1  0  0  0  0
  3  9  1  0  0  0  0
  4  5  1  0  0  0  0
  5  6  2  0  0  0  0
  5 10  1  0  0  0  0
  6 11  1  0  0  0  0
M  END
