
 OpenBabel03301715103D

 11 11  0  0  0  0  0  0  0  0999 V2000
    0.9996    0.0699    0.1598 O   0  0  0  0  0  0  0  0  0  0  0  0
    2.2149    0.0721    0.0711 C   0  0  0  0  0  0  0  0  0  0  0  0
    2.9026    1.2603    0.0400 N   0  0  0  0  0  0  0  0  0  0  0  0
    4.2590    1.2712   -0.0588 C   0  0  0  0  0  0  0  0  0  0  0  0
    4.9476    0.1019   -0.1278 N   0  0  0  0  0  0  0  0  0  0  0  0
    4.3030   -1.0933   -0.0999 C   0  0  0  0  0  0  0  0  0  0  0  0
    2.9134   -1.1347    0.0008 C   0  0  0  0  0  0  0  0  0  0  0  0
    2.3859    2.1675    0.0922 H   0  0  0  0  0  0  0  0  0  0  0  0
    4.7952    2.2109   -0.0829 H   0  0  0  0  0  0  0  0  0  0  0  0
    4.8700   -2.0127   -0.1560 H   0  0  0  0  0  0  0  0  0  0  0  0
    2.3956   -2.0859    0.0234 H   0  0  0  0  0  0  0  0  0  0  0  0
  1  2  2  0  0  0  0
  2  3  1  0  0  0  0
  2  7  1  0  0  0  0
  3  4  1  0  0  0  0
  3  8  1  0  0  0  0
  4  5  2  0  0  0  0
  4  9  1  0  0  0  0
  5  6  1  0  0  0  0
  6  7  2  0  0  0  0
  6 10  1  0  0  0  0
  7 11  1  0  0  0  0
M  END
