
 OpenBabel07181816303D

  9  9  0  0  0  0  0  0  0  0999 V2000
   -1.6228    0.6210    0.0044 N   0  0  0  0  0  0  0  0  0  0  0  0
   -0.8165    1.6837    0.0026 C   0  0  0  0  0  0  0  0  0  0  0  0
    0.5048    1.3113   -0.0038 C   0  0  0  0  0  0  0  0  0  0  0  0
    0.5047   -0.0694   -0.0065 C   0  0  0  0  0  0  0  0  0  0  0  0
   -0.8165   -0.4418    0.0041 C   0  0  0  0  0  0  0  0  0  0  0  0
   -1.1446    2.6622    0.0055 H   0  0  0  0  0  0  0  0  0  0  0  0
    1.3275    1.9343   -0.0062 H   0  0  0  0  0  0  0  0  0  0  0  0
    1.3275   -0.6924   -0.0146 H   0  0  0  0  0  0  0  0  0  0  0  0
   -1.1445   -1.4203    0.0108 H   0  0  0  0  0  0  0  0  0  0  0  0
  1  2  1  0  0  0  0
  1  5  1  0  0  0  0
  2  3  2  0  0  0  0
  2  6  1  0  0  0  0
  3  4  1  0  0  0  0
  3  7  1  0  0  0  0
  4  5  2  0  0  0  0
  4  8  1  0  0  0  0
  5  9  1  0  0  0  0
M  CHG  1   1  -1
M  END
