
 OpenBabel04151614023D

 25 25  0  0  0  0  0  0  0  0999 V2000
    0.8437    0.1011    0.5592 C   0  5  0  0  0  0  0  0  0  0  0  0
    1.9869    0.1028    0.3774 N   0  3  0  0  0  0  0  0  0  0  0  0
    3.3518    0.1047    0.1603 C   0  0  0  0  0  0  0  0  0  0  0  0
    4.0330    1.3123   -0.0008 C   0  0  0  0  0  0  0  0  0  0  0  0
    5.4124    1.3181   -0.2208 C   0  0  0  0  0  0  0  0  0  0  0  0
    6.1429    0.1089   -0.2844 C   0  0  0  0  0  0  0  0  0  0  0  0
    7.6677    0.1496   -0.5296 C   0  0  0  0  0  0  0  0  0  0  0  0
    7.9521    0.8361   -1.8831 C   0  0  0  0  0  0  0  0  0  0  0  0
    8.3496    0.9442    0.6054 C   0  0  0  0  0  0  0  0  0  0  0  0
    8.3152   -1.2557   -0.5719 C   0  0  0  0  0  0  0  0  0  0  0  0
    5.4334   -1.1060   -0.1183 C   0  0  0  0  0  0  0  0  0  0  0  0
    4.0524   -1.1012    0.1015 C   0  0  0  0  0  0  0  0  0  0  0  0
    3.4933    2.2504    0.0441 H   0  0  0  0  0  0  0  0  0  0  0  0
    5.9094    2.2709   -0.3415 H   0  0  0  0  0  0  0  0  0  0  0  0
    7.4717    0.2718   -2.7117 H   0  0  0  0  0  0  0  0  0  0  0  0
    9.0453    0.8813   -2.0801 H   0  0  0  0  0  0  0  0  0  0  0  0
    7.5687    1.8772   -1.9048 H   0  0  0  0  0  0  0  0  0  0  0  0
    8.1583    0.4586    1.5868 H   0  0  0  0  0  0  0  0  0  0  0  0
    7.9778    1.9885    0.6571 H   0  0  0  0  0  0  0  0  0  0  0  0
    9.4491    0.9912    0.4480 H   0  0  0  0  0  0  0  0  0  0  0  0
    8.1712   -1.7892    0.3925 H   0  0  0  0  0  0  0  0  0  0  0  0
    9.4101   -1.1799   -0.7502 H   0  0  0  0  0  0  0  0  0  0  0  0
    7.8856   -1.8668   -1.3951 H   0  0  0  0  0  0  0  0  0  0  0  0
    5.9299   -2.0633   -0.1556 H   0  0  0  0  0  0  0  0  0  0  0  0
    3.5271   -2.0401    0.2261 H   0  0  0  0  0  0  0  0  0  0  0  0
  1  2  3  0  0  0  0
  2  3  1  0  0  0  0
  3  4  2  0  0  0  0
  3 12  1  0  0  0  0
  4  5  1  0  0  0  0
  4 13  1  0  0  0  0
  5  6  2  0  0  0  0
  5 14  1  0  0  0  0
  6 11  1  0  0  0  0
  6  7  1  0  0  0  0
  7 10  1  0  0  0  0
  7  9  1  0  0  0  0
  7  8  1  0  0  0  0
  8 15  1  0  0  0  0
  8 16  1  0  0  0  0
  8 17  1  0  0  0  0
  9 18  1  0  0  0  0
  9 19  1  0  0  0  0
  9 20  1  0  0  0  0
 10 21  1  0  0  0  0
 10 22  1  0  0  0  0
 10 23  1  0  0  0  0
 11 12  2  0  0  0  0
 11 24  1  0  0  0  0
 12 25  1  0  0  0  0
M  CHG  2   1  -1   2   1
M  END
