
 OpenBabel11161612503D

 15 14  0  0  0  0  0  0  0  0999 V2000
    1.5565   -0.0585    0.6836 C   0  5  0  0  0  0  0  0  0  0  0  0
    2.6070    0.3016    0.3547 N   0  3  0  0  0  0  0  0  0  0  0  0
    3.8895    0.7414   -0.0473 C   0  0  0  0  0  0  0  0  0  0  0  0
    4.2381    2.0313    0.7111 C   0  0  0  0  0  0  0  0  0  0  0  0
    4.2397    1.8493    1.8077 H   0  0  0  0  0  0  0  0  0  0  0  0
    3.4918    2.8253    0.4920 H   0  0  0  0  0  0  0  0  0  0  0  0
    5.2433    2.4017    0.4146 H   0  0  0  0  0  0  0  0  0  0  0  0
    4.9195   -0.3508    0.2792 C   0  0  0  0  0  0  0  0  0  0  0  0
    4.9291   -0.5625    1.3704 H   0  0  0  0  0  0  0  0  0  0  0  0
    5.9397   -0.0325   -0.0263 H   0  0  0  0  0  0  0  0  0  0  0  0
    4.6701   -1.2931   -0.2550 H   0  0  0  0  0  0  0  0  0  0  0  0
    3.8754    1.0117   -1.5596 C   0  0  0  0  0  0  0  0  0  0  0  0
    3.1236    1.7918   -1.8082 H   0  0  0  0  0  0  0  0  0  0  0  0
    3.6131    0.0867   -2.1175 H   0  0  0  0  0  0  0  0  0  0  0  0
    4.8722    1.3607   -1.9059 H   0  0  0  0  0  0  0  0  0  0  0  0
  1  2  3  0  0  0  0
  2  3  1  0  0  0  0
  3  8  1  0  0  0  0
  3 12  1  0  0  0  0
  4  3  1  0  0  0  0
  4  5  1  0  0  0  0
  4  6  1  0  0  0  0
  4  7  1  0  0  0  0
  8  9  1  0  0  0  0
  8 10  1  0  0  0  0
  8 11  1  0  0  0  0
 12 13  1  0  0  0  0
 12 14  1  0  0  0  0
 12 15  1  0  0  0  0
M  CHG  2   1  -1   2   1
M  END
