
 OpenBabel11011616123D

 14 13  0  0  0  0  0  0  0  0999 V2000
   -2.6537   -0.0853    1.2244 S   0  0  0  0  0  0  0  0  0  0  0  0
   -1.8858   -1.3414    0.1255 C   0  0  0  0  0  0  0  0  0  0  0  0
   -0.9452   -0.6297   -0.8561 C   0  0  0  0  0  0  0  0  0  0  0  0
   -0.4934   -1.3527   -1.5474 H   0  0  0  0  0  0  0  0  0  0  0  0
   -0.1253   -0.1141   -0.3457 H   0  0  0  0  0  0  0  0  0  0  0  0
   -1.4738    0.1100   -1.4740 H   0  0  0  0  0  0  0  0  0  0  0  0
   -3.0098   -2.0478   -0.6456 C   0  0  0  0  0  0  0  0  0  0  0  0
   -3.5747   -1.3509   -1.2807 H   0  0  0  0  0  0  0  0  0  0  0  0
   -3.7275   -2.5354    0.0241 H   0  0  0  0  0  0  0  0  0  0  0  0
   -2.6003   -2.8242   -1.3027 H   0  0  0  0  0  0  0  0  0  0  0  0
   -1.1017   -2.3541    0.9779 C   0  0  0  0  0  0  0  0  0  0  0  0
   -0.7079   -1.9335    1.9114 H   0  0  0  0  0  0  0  0  0  0  0  0
   -0.2420   -2.7500    0.4248 H   0  0  0  0  0  0  0  0  0  0  0  0
   -1.7220   -3.2172    1.2494 H   0  0  0  0  0  0  0  0  0  0  0  0
  2  1  1  0  0  0  0
  3  2  1  0  0  0  0
  3  4  1  0  0  0  0
  3  5  1  0  0  0  0
  3  6  1  0  0  0  0
  7  2  1  0  0  0  0
  7  8  1  0  0  0  0
  7  9  1  0  0  0  0
  7 10  1  0  0  0  0
 11  2  1  0  0  0  0
 11 12  1  0  0  0  0
 11 13  1  0  0  0  0
 11 14  1  0  0  0  0
M  CHG  1   1  -1
M  END
